<?xml version="1.0" encoding="UTF-8"?>

<!-- generated on Tue Nov 13 13:32:45 2018 by SUMO duarouter Version 0.32.0
<?xml version="1.0" encoding="UTF-8"?>

<configuration xmlns:xsi="http://www.w3.org/2001/XMLSchema-instance" xsi:noNamespaceSchemaLocation="http://sumo.dlr.de/xsd/duarouterConfiguration.xsd">

    <input>
        <net-file value="map.net.xml"/>
        <route-files value="trips.trips.xml"/>
    </input>

    <output>
        <output-file value="map.rou.xml"/>
        <alternatives-output value="map.rou.alt.xml"/>
    </output>

    <processing>
        <ignore-errors value="true"/>
    </processing>

    <time>
        <begin value="0"/>
        <end value="100.0"/>
    </time>

    <report>
        <no-warnings value="true"/>
        <no-step-log value="true"/>
    </report>

</configuration>
-->

<routes xmlns:xsi="http://www.w3.org/2001/XMLSchema-instance" xsi:noNamespaceSchemaLocation="http://sumo.dlr.de/xsd/routes_file.xsd">
    <vehicle id="0" depart="0.00">
        <route edges="164482384 31368077#1 31368077#2 30724863#0 30724863#1 30724863#2 309596320 362819230 362819227#6 362819228 362819433#0 362819433#1"/>
    </vehicle>
    <vehicle id="1" depart="1.00">
        <route edges="96394728 289984889#0 289984889#1 289984889#2 -112687933 112687928 31294086#0 31294086#1 31294086#2 31294086#3 31294086#4 31294081#0 31294081#1 441741605#0 441741605#1 441741605#2 168522950 -362819433#2 -362819433#1 -362819433#0 362819225 362819227#1 362819231 30724868 427224330 31369761 31369767#0 31369767#1 31369769 163827573#0 163827573#1 163827573#2 163827573#3 126592154#0 126592154#1 126592154#2 126592155 33049043#1 33049043#2 -31294078#2 -31294078#1 -31294078#0 30334305 30620182#5 30620182#6 30620182#7 30620182#0 -172990465#4 -172990465#3 -172990465#2 -172990465#1 -172990465#0 196496908#4 196496908#5 290036201#0 326743654#0 326743654#1 326743654#2 326743654#3 326743654#4"/>
    </vehicle>
    <vehicle id="2" depart="2.00">
        <route edges="32676704 32668048#1 31291531 30724863#1 30724863#2 309596320 362819230 362819227#6 362819227#7 362819227#0 362819227#1 362819231 30724868 427224330 31369761 31369767#0 31369767#1 31369760"/>
    </vehicle>
    <vehicle id="3" depart="3.00">
        <route edges="-112687933 112687928 31294086#0 31294086#1 31294086#2 31294086#3 31294086#4 -30334315#7 -30334315#6 -30334315#5 -30334315#4 -30334315#3 30334315#3"/>
    </vehicle>
    <vehicle id="4" depart="4.00">
        <route edges="31291526#1 32679835#1 406996862#0 406996862#1 406996861 31364648#0 31364648#1 130128313 130128314 69800788#0 69800788#1 69805695#0 69805695#1 69805695#2"/>
    </vehicle>
    <vehicle id="5" depart="5.00">
        <route edges="153785251#1 153785251#2 153785251#3 153785251#4 267391006 267391007 267391419 69816437#0 69816437#1 69816437#2 69816437#3 130533958 69816446 130533960 31306934#2 31306934#3 31306934#4 31306934#5 31306934#6 24417327 31308006 378042501#0 378042501#1 378042501#2 378042500 30620179#1 30620178"/>
    </vehicle>
    <vehicle id="6" depart="6.00">
        <route edges="35102446#0 -158700243#1 -158700243#0 -158700232#1 -158700232#0 -31293293#0 -112687929 -112687944 31293294 31293291#1 31293291#2 31367162#0 31367162#1 31367162#2 31367163#0 31367163#1 31367163#2 -31367163#2"/>
    </vehicle>
    <vehicle id="7" depart="7.00">
        <route edges="31368077#1 31368077#2 -406718407 -31367159#3 33051403"/>
    </vehicle>
    <vehicle id="8" depart="8.00">
        <route edges="164482377 69800774#0 69800774#1 31291526#0"/>
    </vehicle>
    <vehicle id="9" depart="9.00">
        <route edges="290031978 -164482381#0 31368077#2 30724863#0 30724863#1 30724863#2 309596320 362819230 362819227#6 362819227#7 362819227#0 362819227#1 362819231 30724868 427224330 31369761 31369767#0 31369767#1 31369769 162409542#0 162409542#1 31369770#0 31369770#1 31369770#2 31369770#3 151552745#0"/>
    </vehicle>
    <vehicle id="10" depart="10.00">
        <route edges="-31364653#0 31364653#0 31364653#1 31364653#2 31367159#0 31367159#1 31367159#2 31367159#3 406718407 -69800784#3 -69800784#2 -69800784#1 31291526#0 31291526#1 32679835#1 406996862#0 406996862#1 406996861 31364647#0 31364647#1 31364647#2 267390781#0 153785251#1 153785251#2 153785251#3 153785251#4 267391006 267391007 267391419 69816437#0 69816437#1 69816437#2 69816437#3 130533958 69816446 130533960 31306934#2 31306934#3 31306934#4 31306934#5 31306934#6 24417327"/>
    </vehicle>
    <vehicle id="11" depart="11.00">
        <route edges="267417342 267417345#0 267417345#1 -31306934#3 -31306934#2 -130533960 -130533961 130533962 267385847 -267385848 -130128315 69816449#0 69816449#1 69816449#2 267391809#1 267391808 267392119 362836313 31364632 362836315#0 362836315#1 362836315#2 362836315#3 362836315#4 69805695#0 69805695#1 69805695#2"/>
    </vehicle>
    <vehicle id="12" depart="12.00">
        <route edges="196496908#0 196496908#1 196496908#2 196496908#3 196496908#4 196496908#5 290036201#0 290036201#1 290036201#2 290036201#3 30620179#9 30620179#10 30620179#11 30620179#0 30620179#1 30620178 31306937 31306939#0 31306939#1 30620177#4 30620177#0 31364636 31364639#0 31364639#1 31364639#2 267391808 267392119 362836313 -362836312 69816440#0 69816440#1 267391418 267391419 130536360#0 130536360#1 130536360#2 78248020#0 153785251#0 153785251#1 290032685"/>
    </vehicle>
    <vehicle id="13" depart="13.00">
        <route edges="362837741 362837743 -325371271#2 -325371271#1 -325371271#0 -249307663 33049033 31294086#0 31294086#1 31294086#2 31294086#3 31294086#4 -30334315#7 -30334315#6 -30334315#5 -30334315#4 -30334315#3 -30334315#2 -30334315#1 -30334315#0 31294082#7 31294082#0 31294153 -31293295 -427459435#1 -427459435#0 -427459434#1 -427459434#0 31293296#0 31293296#1 31293296#2 31293291#4 31293291#5 31293291#6 31293291#7 30334349 112687944 112687929 -112687929"/>
    </vehicle>
    <vehicle id="15" depart="15.00">
        <route edges="-31306934#6 -31306934#5 -31306934#4 -31306934#3 -31306934#2 -130533960 -130533961 130533962 267385847 -267385848 -130128315 69816449#0 69816449#1 69816449#2 267391809#1 267391808 267392119 362836313 31364632 362836315#0 362836315#1 362836315#2 362836315#3 362836315#4 -69800788#1 -69800788#0 69800784#0 69800784#1 69800784#2"/>
    </vehicle>
    <vehicle id="16" depart="16.00">
        <route edges="35102446#0 -158700243#1 -158700243#0 -158700232#1 -158700232#0 -31293293#0 -112687929 -112687944 31293294 31293291#1 30334313 427459434#0 427459434#1 427459435#0 427459435#1 31293295 31294154 31294082#2 31294082#3 31294082#4 31294082#5 31294082#6 30334315#0 30334315#1 30334315#2 30334315#3 30334315#4 30334315#5 30334315#6 30334315#7 31294081#0 31294081#1 441741605#0 441741605#1 441741605#2 168522950 249307658 249307659 31367166#0 31367166#1 310398775#0 310398775#1"/>
    </vehicle>
    <vehicle id="17" depart="17.00">
        <route edges="-131338578 131338578 289984889#1 289984889#2 -112687933 112687933"/>
    </vehicle>
    <vehicle id="18" depart="18.00">
        <route edges="35102446#0 -158700243#1 -158700243#0 -158700232#1 -158700232#0 -31293293#0 -112687929 -112687944 31293294 31293291#1 31293291#2 31367162#0 31367162#1 31367162#2 31367163#0 31367163#1 31367163#2 31367163#3 31367163#4 31367163#5 31367163#6 31367159#0 31367159#1 -31367159#1"/>
    </vehicle>
    <vehicle id="19" depart="19.00">
        <route edges="-131338576 131338577#3 35134825#2 289984889#0 289984889#1 289984889#2 -112687933 112687928 31294086#0 31294086#1 31294086#2 31294086#3 31294086#4 -30334315#7 -30334315#6 -30334315#5 -30334315#4 -30334315#3 -30334315#2 -30334315#1 -30334315#0 31294082#7 31294082#0 31294153 -31293295 -427459435#1 -427459435#0 -427459434#1 427459434#1"/>
    </vehicle>
    <vehicle id="20" depart="20.00">
        <route edges="31294068 30620182#3 31294073 31294078#0 31294078#1 31294078#2 31294078#3 31294078#4 31294077#0 31294077#1 33049042#0 33049042#1 33049042#2 33049042#3 31369773#0 31369773#1 31369773#2 31369774 -163827573#3 -163827573#2 -163827573#1 -163827573#0 -31369769 31369760 31369954 362819232 362819227#3 362819227#4 362819227#5 362819227#6 362819228 362819433#0 362819433#1 362819433#2 31294083#0 31294083#1 168522953#0 249307656 249307657 168522951 441741605#0"/>
    </vehicle>
    <vehicle id="21" depart="21.00">
        <route edges="-31306934#2 31306934#2 31306934#3 31306934#4 31306934#5 31306934#6 24417327 31308006 378042501#0 378042501#1 378042501#2 378042500 30620179#1 30620179#2 30620179#3 24417326 31306933#0 267413481 267413482 267413483#1 267413488#0 267413488#1 267413488#2 31294078#2 31294078#3 31294078#4 31294077#0 31294077#1 33049042#0 33049042#1 33049042#2 33049042#3 31369773#0 31369773#1 31369773#2 31369774 -163827573#3 -163827573#2 -163827573#1 -163827573#0 -31369769 31369760 31369954 362819232 362819227#3 362819227#4 362819227#5 362819227#6 362819228 362819433#0 362819433#1 31306368#0 31306368#1 362837743 -325371271#2 -325371271#1 -325371271#0 -249307663 33049033 -112687928 112687933 -289984889#2 -289984889#1 -289984889#0 -35134825#2"/>
    </vehicle>
    <vehicle id="23" depart="23.00">
        <route edges="362837743 -325371271#2 -325371271#1 -325371271#0 325371272 441741605#0 441741605#1 441741605#2 168522950 -362819433#2 -362819433#1 -362819433#0 362819225 362819227#1 362819231 30724868 427224330 31369761 31369767#0 31369767#1 31369769 163827573#0 163827573#1 163827573#2 163827573#3 126592154#0 126592154#1 126592154#2 126592155 33049043#1 33049043#2 -31294078#2 -31294078#1 -31294078#0 30334305 30620182#5 30620182#6 30620182#7 30620182#0 -172990465#4 -172990465#3 -172990465#2 -172990465#1 -172990465#0 196496908#4 196496908#5 395874580#0"/>
    </vehicle>
    <vehicle id="24" depart="24.00">
        <route edges="267391592#0 267391592#1 267391592#2 31364647#8 69816440#0 267391809#0 267391809#1 -31364639#2 -31364639#1 -31364639#0 31364640 30620177#2 30620180#0 30620180#1 31306935 31306936 30620179#3 30620179#4 30620179#5 30620179#6 30620179#7 30620179#8 -290036201#3"/>
    </vehicle>
    <vehicle id="25" depart="25.00">
        <route edges="-326743656#1 -326743656#0 -326743655#0 -326743654#1 -326743654#0 -290036201#0 -196496908#5 -196496908#4 172990465#0 172990465#1 172990465#2 172990465#3 172990465#4 30620182#1 30620182#2 30620182#3 31294073 31294078#0 31294078#1 31294078#2 31294078#3 31294078#4 31294077#0 31294077#1 33049042#0 33049042#1 33049042#2 33049042#3 31369773#0 31369773#1 31369773#2 31369774 -163827573#3 -163827573#2 -163827573#1 -163827573#0 -31369769 31369760 31369954 362819232 362819227#3 362819227#4 362818375 -309596320 -30724863#2 -30724863#1 -30724863#0 -406718407 -31367159#3"/>
    </vehicle>
    <vehicle id="26" depart="26.00">
        <route edges="-31293293#4 -31293293#3 -31293293#2 -31293293#1 -31293293#0 -112687929 -112687944 31293294 31293291#1 31293291#2 31367162#0 31367162#1 31367162#2 31367163#0 31367163#1 31367163#2 31367163#3 31367163#4 31367163#5 31367163#6 31367159#0 31367159#1 31367159#2 31367159#3 406718407 -69800784#3 -69800784#2 -69800784#1 31291526#0 31291526#1 32679835#1 406996862#0 406996862#1 406996861 31364647#0 31364647#1 31364647#2 267390781#0 153785251#1 153785251#2 153785251#3 153785251#4 267391006 267391007 267391419 69816437#0 69816437#1 69816437#2 69816445 267385848 -267385847 -267385846 130536359 130536361 69816444#0 69816444#1 -31364639#0 31364640 30620177#2 30620180#0 30620180#1 31306935"/>
    </vehicle>
    <vehicle id="27" depart="27.00">
        <route edges="31367163#4 -31367163#4 -31367163#3 -31367163#2 -31367163#1 -31367163#0 31367161 31293291#5 31293291#6 31293291#7 31293291#8 31293291#0 31293291#1 30334313 427459434#0 427459434#1 427459435#0 427459435#1 31293295 31294154 31294082#2 31294082#3 31294082#4 31294082#5 31294082#6 30334315#0 30334315#1 30334315#2 30334315#3 30334315#4 30334315#5 30334315#6 30334315#7 -31294086#4 -31294086#3 -31294086#2 -31294086#1 -31294086#0 -112687928 112687933 -289984889#2 35134824#0 35134824#1 35134824#2"/>
    </vehicle>
    <vehicle id="28" depart="28.00">
        <route edges="35134824#4 35134824#5 -31293293#3 -31293293#2 -31293293#1 -31293293#0 -112687929 -112687944 31293294 31293291#1 30334313 427459434#0 427459434#1 427459435#0 427459435#1 31293295 31294154 31294082#2 31294082#3 31294082#4 31294082#5 31294082#6 30334315#0 30334315#1 30334315#2 30334315#3 30334315#4 30334315#5 30334315#6 30334315#7 -31294086#4 -31294086#3 -31294086#2 -31294086#1 -31294086#0 -112687928 112687933 -289984889#2 35134824#0 35134824#1 35134824#2 35134824#3 -35134827"/>
    </vehicle>
    <vehicle id="29" depart="29.00">
        <route edges="-126592155 126592155 33049043#1 33049043#2 31294078#3 31294078#4 31294077#0 31294077#1 31294077#2"/>
    </vehicle>
    <vehicle id="30" depart="30.00">
        <route edges="69805695#1 -69805695#1 -69805695#0 -69800788#1 -69800788#0 69800784#0 31291526#0 31291526#1 32679835#1 406996862#0 406996862#1 406996861 31364647#0 31364647#1 31364647#2 267390781#0 153785251#1 153785251#2 153785251#3 153785251#4 267391006 267391007 267391419 69816437#0 69816437#1 69816437#2 69816437#3 130533958 69816446 130533960 31306934#2 31306934#3 31306934#4 163824001#0"/>
    </vehicle>
    <vehicle id="31" depart="31.00">
        <route edges="31368077#0 31368077#1 31368077#2 30724863#0 30724863#1 30724863#2 309596320 362819230 362819227#6 362819227#7 362819227#0 362819227#1 362819231 30724868 427224330 31369761 287232335#0 287232335#1 256745715#0 256745716"/>
    </vehicle>
    <vehicle id="32" depart="32.00">
        <route edges="-31368079 31368077#1 31368077#2 30724863#0 30724863#1 30724863#2 309596320 362819230 362819227#6 362819228 362819433#0 362819433#1 31306368#0 31306368#1 362837743 -325371271#2 -325371271#1 -325371271#0 -249307663 33049033 -112687928 112687933 -289984889#2 35134824#0 35134824#1 35134824#2 35134824#3 -35134827"/>
    </vehicle>
    <vehicle id="33" depart="33.00">
        <route edges="-126592155 -126592154#2 -126592154#1 -126592154#0 -163827573#3 -163827573#2 -163827573#1 -163827573#0 -31369769 31369760 31369954 362819232 362819227#3 362819227#4 362818375 -309596320 -30724863#2 -30724863#1 -30724863#0 -69800784#3 290031978 164482381#1 164482381#2 164482384 31368077#1"/>
    </vehicle>
    <vehicle id="34" depart="34.00">
        <route edges="249307661 249307660 -112687928 112687933 -289984889#2 35134824#0"/>
    </vehicle>
    <vehicle id="35" depart="35.00">
        <route edges="-290036201#3 290036201#3 30620179#9 30620179#10 30620179#11 30620179#0 30620179#1 30620178 31306937 31306939#0 31306939#1 30620177#4 30620177#0 31364636 31364639#0 31364639#1 31364639#2 267391808 267392119 362836313 -362836312 69816440#0 69816440#1 267391418 267391419 130536360#0 130536360#1 130536360#2 78248020#0 78248020#1 78248020#2 31364647#2 31364647#3"/>
    </vehicle>
    <vehicle id="36" depart="36.00">
        <route edges="30724866 30724865 427224329 362837740 362837741 362837743 -325371271#2 -325371271#1 -325371271#0 -249307663 33049033 -112687928 112687933 -289984889#2 -289984889#1 -289984889#0 -35134825#2 -35134825#1 -35134825#0"/>
    </vehicle>
    <vehicle id="37" depart="37.00">
        <route edges="-32676704 32676704 32668048#1"/>
    </vehicle>
    <vehicle id="38" depart="38.00">
        <route edges="267417342 267417345#0 267417345#1 -31306934#3 -31306934#2 -130533960 -130533961 130533962 267385847 -267385848 -130128315 69816449#0 69816449#1 69816449#2 267391809#1 267391808 267392119 362836313 31364632 362836315#0 362836315#1 362836315#2 362836315#3 362836315#4 -69800788#1 -69800788#0 69800784#0 69800784#1 69800784#2 69800784#3 -406718407 -31367159#3 33051403"/>
    </vehicle>
    <vehicle id="39" depart="39.00">
        <route edges="30334315#1 30334315#2 30334315#3 30334315#4 30334315#5 30334315#6 30334315#7 31294081#0 31294081#1 441741605#0 441741605#1 441741605#2 168522950 -362819433#2 -362819433#1 -362819433#0 362819225 362819227#1 362819231 30724868 427224330 31369761 31369767#0 31369767#1 31369769 163827573#0 163827573#1 163827573#2 163827573#3 126592154#0 126592154#1 126592154#2 126592155 33049043#1 33049043#2 -31294078#2 -31294078#1 -31294078#0 30334305 30620182#5 30620182#6 30620182#7 30620182#0 -172990465#4 -172990465#3 -172990465#2 -172990465#1 -172990465#0 196496908#4 196496908#5 290036201#0 326743654#0 326743654#1 326743654#2 326743654#3 -326743654#3"/>
    </vehicle>
    <vehicle id="40" depart="40.00">
        <route edges="130536359 130536361 69816444#0 69816444#1 31364639#1 31364639#2 267391808 267392119 362836313 31364632 362836315#0 362836315#1 362836315#2 362836315#3 362836315#4 69805695#0 164482377 -164482381#2 -164482381#1 -164482381#0 164482381#0"/>
    </vehicle>
    <vehicle id="41" depart="41.00">
        <route edges="31293291#8 31293291#0 31293291#1 31293291#2 31367162#0 31367162#1 31367162#2 31367163#0 31367163#1 31367163#2 31367163#3 31367163#4 31367163#5 31367163#6 31367159#0 31367159#1 31367159#2 31367159#3 406718407 31291529"/>
    </vehicle>
    <vehicle id="42" depart="42.00">
        <route edges="31306936 30620179#3 30620179#4 30620179#5 30620179#6 30620179#7 30620179#8 -290036201#3 290036201#3"/>
    </vehicle>
    <vehicle id="43" depart="43.00">
        <route edges="-31364639#2 31364639#2 267391808 267392119 362836313 31364632 362836315#0 362836315#1 362836315#2 362836315#3 362836315#4 -69800788#1 -69800788#0 69800784#0 69800784#1 69800784#2 69800784#3 -406718407 -31367159#3 -31367159#2 -31367159#1 -31367159#0 -31367163#6 -31367163#5 -31367163#4 -31367163#3 -31367163#2 -31367163#1 -31367163#0 31367161 31293291#5 31293291#6 31293291#7 30334349 112687944 112687929 31293293#0 158700232#0 158700232#1 158700243#0 158700243#1 -35102446#0"/>
    </vehicle>
    <vehicle id="44" depart="44.00">
        <route edges="35134824#0 131338577#0 131338578 289984889#1 289984889#2 -112687933 112687928 31294086#0 31294086#1 31294086#2 31294086#3 31294086#4 31294081#0 31294081#1 441741605#0 441741605#1 441741605#2 168522950 -362819433#2 -362819433#1 -362819433#0 362819225 362819227#1 362819231 30724868 427224330 31369761 31369767#0 31369767#1 31369769 163827573#0 163827573#1 163827573#2 163827573#3 126592154#0 126592154#1 126592154#2 126592155 33049043#1 33049043#2 -31294078#2 -31294078#1 -31294078#0 30334305 30620182#5 30620182#6 30620182#7 30620182#0 30620182#1 30620183#0 30620183#1 30620183#2 30620183#3 30620179#8 30620179#9 31308003#0 31308003#1 31308003#2 31308003#3 31308005 408878922#1 330751427 378042501#0"/>
    </vehicle>
    <vehicle id="45" depart="45.00">
        <route edges="30620184#0 30620184#1 30620182#7 30620182#0 30620182#1 30620182#2 30620182#3 31294073 31305877#0"/>
    </vehicle>
    <vehicle id="46" depart="46.00">
        <route edges="151552746 31369772#1 -163827573#2 -163827573#1 -163827573#0 -31369769 31369760 31369954 30334306"/>
    </vehicle>
    <vehicle id="47" depart="47.00">
        <route edges="31368080 31367150#1 31367150#2 31367150#3 31367153 411745223 31364653#0 31364653#1 31364653#2 -31367163#6 -31367163#5 -31367163#4 -31367163#3 -31367163#2 -31367163#1 -31367163#0 31367161 31293291#5 31293291#6 31293291#7 31293291#8 31293291#0 31293291#1 30334313 427459434#0 427459434#1 427459435#0 427459435#1 31293295 31294154 31294082#2 31294082#3 31294082#4 31294082#5 31294082#6 30334315#0 30334315#1 30334315#2 30334315#3 30334315#4 30334315#5 30334315#6 30334315#7 -31294086#4 -31294086#3 -31294086#2 -31294086#1 -31294086#0 -112687928 112687933 -289984889#2 35134824#0 35134824#1 35134824#2 35134824#3 -35134827"/>
    </vehicle>
    <vehicle id="48" depart="48.00">
        <route edges="35134824#0 131338577#0 131338578 289984889#1 289984889#2 -112687933 112687928 31294086#0 31294086#1 31294086#2 31294086#3 31294086#4 31294081#0 31294081#1 441741605#0 441741605#1 441741605#2 168522950 -362819433#2 -362819433#1 -362819433#0 362819225 362819227#1 362819231 30724868 427224330 31369761 31369767#0 31369767#1 31369769 163827573#0 163827573#1 163827573#2 163827573#3 126592154#0 126592154#1 126592154#2 126592155 33049043#1 33049043#2 -31294078#2 -31294078#1 -31294078#0 30334305 30620182#5 30620182#6 30620182#7 30620182#0 30620182#1 30620183#0 30620183#1 30620183#2 30620183#3 30620179#8 -290036201#3"/>
    </vehicle>
    <vehicle id="49" depart="49.00">
        <route edges="30334313 427459434#0 -427459434#0 31293296#0 31293296#1 31367162#1 31367162#2 31367163#0 31367163#1 31367163#2 31367163#3 31367163#4 31367163#5 31367163#6 31367159#0 31367159#1 31367159#2 31367159#3 406718407 -69800784#3"/>
    </vehicle>
    <vehicle id="50" depart="50.00">
        <route edges="31306939#0 31306939#1 30620177#4 30620177#0 31364636 31364639#0 31364639#1 31364639#2 267391808 267392119 362836313 -362836312 69816440#0 69816440#1 267391418 267391419 130536360#0 130536360#1 130536360#2 78248020#0 153785251#0 153785251#1 153785251#2 153785251#3 153785248 31364647#5"/>
    </vehicle>
    <vehicle id="51" depart="51.00">
        <route edges="-69805695#2 -69805695#1 -69805695#0 -69800788#1 -69800788#0 69800784#0 31291526#0 31291526#1 32679835#1 406996862#0 406996862#1 406996861 31364647#0 31364647#1 31364647#2 267390781#0 267390781#1 130536360#1 130536360#2 78248020#0 153785251#0"/>
    </vehicle>
    <vehicle id="52" depart="52.00">
        <route edges="33051403 33051431 31367150#6 31367150#0 -31368080 -31368079 31368077#1 31368077#2 30724863#0 30724863#1 30724863#2 309596320 362819230 362819227#6 362819227#7 362819227#0 362819227#1 362819231 30724868 427224330 31369761 31369767#0 31369767#1 31369769 162409542#0 162409542#1 31369770#0 31369770#1 31369770#2 31369770#3 31369772#0 31369772#1"/>
    </vehicle>
    <vehicle id="53" depart="53.00">
        <route edges="35134825#0 35134825#1 35134825#2 289984889#0 289984889#1 289984889#2 -112687933 112687928 31294086#0 31294086#1 31294086#2 31294086#3 31294086#4 31294081#0 31294081#1 441741605#0 441741605#1 441741605#2 168522950 249307658 249307659 31367166#0 31367166#1 310398775#0 310398775#1"/>
    </vehicle>
    <vehicle id="54" depart="54.00">
        <route edges="256745715#1 363139274 363139275 163827555#2 31369764 31369765 31369767#1 31369760 31369954 362819232 362819227#3 362819227#4 362819227#5 362819227#6 362819228 362819433#0 362819433#1 31306368#0 31306368#1 362837743 -325371271#2 -325371271#1 -325371271#0 -249307663 33049033"/>
    </vehicle>
    <vehicle id="55" depart="55.00">
        <route edges="126592155 -126592155 -126592154#2 -126592154#1 -126592154#0 -163827573#3 -163827573#2 -163827573#1 -163827573#0 -31369769 31369760 31369954 362819232 362819227#3 362819227#4 362818375 -309596320 -30724863#2 -30724863#1 -30724863#0 -406718407 -31367159#3 -31367159#2 -31367159#1 -31367159#0 -31364653#2 -31364653#1 -31364653#0 31364653#0"/>
    </vehicle>
    <vehicle id="56" depart="56.00">
        <route edges="31369765 31369767#1 31369769 163827573#0 163827573#1 163827573#2 163827573#3 126592154#0 126592154#1 126592154#2 126592155 33049043#1 33049043#2 289707001 267413480#0 267413480#1"/>
    </vehicle>
    <vehicle id="57" depart="57.00">
        <route edges="31364640 30620177#2 30620177#3 30620177#4 30620177#0 31364636 31364639#0 31364639#1 31364639#2 267391808 267392119 362836313 31364632 362836315#0 362836315#1 362836315#2 362836315#3 362836315#4 -69800788#1 -69800788#0 69800784#0 69800784#1 69800784#2 69800784#3 -406718407 -31367159#3 -31367159#2 -31367159#1 -31367159#0 -31367163#6 -31367163#5 -31367163#4 -31367163#3 -31367163#2 -31367163#1 -31367163#0 31367161 31293291#5 31293292 -31293289#5 33051428#0 33051428#1 33051428#2 -33051432#3 -33051432#2"/>
    </vehicle>
    <vehicle id="58" depart="58.00">
        <route edges="-395874580#0 290036201#0 290036201#1 290036201#2 290036201#3 30620179#9 30620179#10 30620179#11 30620179#0 30620179#1 30620179#2 30620179#3 24417326 31306933#0 31306933#1 31306932#0 31306932#1 31306932#2 31306932#3 31306934#0 31306934#1 31306934#2 267417342 267417345#0 267417345#1"/>
    </vehicle>
    <vehicle id="59" depart="59.00">
        <route edges="-326743654#4 -326743654#3 -326743654#2 -326743654#1 -326743654#0 -290036201#0 -196496908#5 -196496908#4 -196496908#3 -196496908#2 -196496908#1 196496908#1"/>
    </vehicle>
    <vehicle id="60" depart="60.00">
        <route edges="31369760 31369954 362819232 362819227#3 362819226#0 362819226#1 32679835#0 32679835#1 406996862#0 406996862#1 406996861 31364647#0 31364647#1 31364647#2 267390781#0 153785251#1 153785251#2 153785251#3 153785251#4 267391006 267391007 267391419 69816437#0 69816437#1 69816437#2 69816437#3 130533958 69816446 -130533961 130533957"/>
    </vehicle>
    <vehicle id="61" depart="61.00">
        <route edges="-362819433#0 362819433#0 362819433#1 31306368#0 31306368#1 362837743 -325371271#2 -325371271#1 -325371271#0 -249307663 33049033 -112687928 112687933 -289984889#2 35134824#0 131338577#0 131338577#1 131338573#0"/>
    </vehicle>
    <vehicle id="62" depart="62.00">
        <route edges="31294077#2 31294077#3 31294077#4 189428043 427224330 31369761 31369767#0 31369767#1 31369769 163827573#0 163827573#1 163827573#2 163827573#3 126592154#0 126592154#1 126592154#2 126592155 33049043#1 33049043#2 -31294078#2 -31294078#1 -31294078#0 30334305 30620182#5 30620182#6 30620182#7 30620182#0 -172990465#4 -172990465#3 -172990465#2 -172990465#1 -172990465#0 196496908#4 196496908#5 395874580#0 395874580#1 395874580#2"/>
    </vehicle>
    <vehicle id="63" depart="63.00">
        <route edges="326743656#1 -326743656#1 -326743656#0 -326743655#0 -326743654#1 -326743654#0 290036201#1 290036201#2 290036201#3 30620179#9 31308003#0 31308003#1 31308003#2 31308003#3 31308005 408878922#1"/>
    </vehicle>
    <vehicle id="64" depart="64.00">
        <route edges="31364647#3 -290032685 153785251#2 153785251#3 153785251#4 267391006 267391007 267391419 130536360#0 130536360#1 130536360#2 130536360#3 267390298"/>
    </vehicle>
    <vehicle id="65" depart="65.00">
        <route edges="-290036201#3 196496906#0 196496906#1 196496906#2 172990465#4 30620182#1 30620182#2 30620182#3 31294073 31294078#0 31294078#1 31294078#2 31294078#3 31294078#4 31294077#0 31294077#1 33049042#0 33049042#1 33049042#2 33049042#3 31369773#0 31369773#1 31369773#2 31369774 -163827573#3 -163827573#2 -163827573#1 -163827573#0 -31369769 31369760 31369954 362819232 362819227#3 362819227#4 362819227#5 362819227#6 362819228 362819433#0 362819433#1 362819433#2 249307658 249307659 31367166#0"/>
    </vehicle>
    <vehicle id="66" depart="66.00">
        <route edges="31291526#2 31291526#3 31291526#4 31291526#5 379139797#0 379139797#1 377883630 31294070 267413483#0 267413483#1 414312640#0 414312640#1 414312640#2 31306933#0 31306933#1 31306932#0 31306932#1 31306932#2 31306932#3 31306934#0 31306934#1 31306934#2 31306934#3 31306934#4 31306934#5 31306934#6"/>
    </vehicle>
    <vehicle id="67" depart="67.00">
        <route edges="-31364653#0 31364653#0 31364653#1 31364653#2 31367159#0 31367159#1 31367159#2 31367159#3 406718407 -69800784#3 -69800784#2 -69800784#1 31291526#0 31291526#1 32679835#1 406996862#0 406996862#1 406996861 31364647#0 31364647#1 31364647#2 31364647#3 31364647#4 31364647#5 31364647#6 31364647#7 31364647#8 69816440#0 69816440#1"/>
    </vehicle>
    <vehicle id="68" depart="68.00">
        <route edges="31306934#1 31306934#2 31306934#3 31306934#4 31306934#5 31306934#6 24417327 31308006 378042501#0 378042501#1 378042501#2 378042500 30620179#1 30620179#2 30620179#3 24417326 31306933#0 267413481 267413482 267413483#1 267413488#0 267413488#1 267413488#2 31294078#2 31294078#3 31294078#4 31294077#0 31294077#1 33049042#0 33049042#1 33049042#2 33049042#3 31369773#0 31369773#1 31369773#2 31369774 -163827573#3 -163827573#2 -163827573#1 -163827573#0 -31369769 31369760 31369954 362819232 362819227#3 362819227#4 362819227#5 362819227#6 362819228 362819433#0 362819433#1 31306368#0 31306368#1 -362837741 30724866 30724857"/>
    </vehicle>
    <vehicle id="69" depart="69.00">
        <route edges="31364653#0 31364653#1 31364653#2 31367159#0 31367159#1 31367159#2 31367159#3 406718407 30724863#0 30724863#1 30724863#2 309596320 362819230 362819227#6 362819227#7 362819227#0 362819227#1 362819231 30724868 427224330 31369761 31369767#0 31369767#1 31369769 163827573#0 163827573#1 163827573#2 163827573#3 126592154#0 126592154#1 126592154#2 126592155 33049043#1 33049043#2 -31294078#2 -31294078#1 -31294078#0 30334305 30620182#5 30620182#6 30620182#7 30620182#0 -172990465#4 -172990465#3 -172990465#2 -172990465#1 -172990465#0 196496908#4 196496908#5 290036201#0 326743654#0 326743654#1 -326743654#1"/>
    </vehicle>
    <vehicle id="70" depart="70.00">
        <route edges="31369772#0 31369772#1 -163827573#2 -163827573#1 -163827573#0 -31369769 31369760 31369954 362819232 362819227#3 362819227#4 362818375 -309596320 -30724863#2 -30724863#1 -30724863#0 -69800784#3 -69800784#2 -69800784#1 -69800784#0 69800788#0 69800788#1 69805695#0 69805695#1 69805695#2 -69805695#2"/>
    </vehicle>
    <vehicle id="71" depart="71.00">
        <route edges="-131338573#1 -131338573#0 131338577#2 131338577#3 35134825#2 289984889#0 289984889#1 289984889#2 -112687933 112687928 31294086#0 31294086#1 31294086#2 31294086#3 31294086#4 31294081#0 31294081#1 441741605#0 441741605#1 441741605#2 168522950 -362819433#2 -362819433#1 -362819433#0 362819225 362819227#1 362819231 30724868 427224330 31369761 31369767#0 31369767#1 31369769 163827573#0 163827573#1"/>
    </vehicle>
    <vehicle id="72" depart="72.00">
        <route edges="31306936 30620179#3 30620179#4 30620179#5 30620179#6 30620179#7 30620179#8 -290036201#3 -290036201#2 -290036201#1 -290036201#0 -196496908#5 -196496908#4 -196496908#3 374070424#0"/>
    </vehicle>
    <vehicle id="73" depart="73.00">
        <route edges="31294155#0 31294155#1 32668048#0 32668048#1 31291531 -30724863#0 -406718407 -31367159#3 -31367159#2 -31367159#1 -31367159#0 -31367163#6 -31367163#5 -31367163#4 -31367163#3 -31367163#2 -31367163#1 -31367163#0 31367161 31293291#5 31293292 -31293289#5 33051428#0 33051428#1 33051428#2"/>
    </vehicle>
    <vehicle id="74" depart="74.00">