<?xml version="1.0" encoding="UTF-8"?>

<!-- generated on Tue Nov 13 13:32:31 2018 by SUMO netconvert Version 0.32.0
<?xml version="1.0" encoding="UTF-8"?>

<configuration xmlns:xsi="http://www.w3.org/2001/XMLSchema-instance" xsi:noNamespaceSchemaLocation="http://sumo.dlr.de/xsd/netconvertConfiguration.xsd">

    <input>
        <osm-files value="map.osm"/>
    </input>

    <output>
        <output-file value="map.net.xml"/>
    </output>

    <projection>
        <proj.utm value="true"/>
    </projection>

</configuration>
-->

<net version="0.27" xmlns:xsi="http://www.w3.org/2001/XMLSchema-instance" xsi:noNamespaceSchemaLocation="http://sumo.dlr.de/xsd/net_file.xsd">

    <location netOffset="-510356.08,-5203180.47" convBoundary="0.00,0.00,2964.62,2069.80" origBoundary="3.136203,46.982016,3.175158,47.000685" projParameter="+proj=utm +zone=31 +ellps=WGS84 +datum=WGS84 +units=m +no_defs"/>

    <type id="highway.bridleway" priority="1" numLanes="1" speed="2.78" allow="pedestrian" oneway="1" width="2.00"/>
    <type id="highway.bus_guideway" priority="1" numLanes="1" speed="8.33" allow="bus" oneway="1"/>
    <type id="highway.cycleway" priority="1" numLanes="1" speed="5.56" allow="bicycle" oneway="0" width="1.00"/>
    <type id="highway.footway" priority="1" numLanes="1" speed="2.78" allow="pedestrian" oneway="1" width="2.00"/>
    <type id="highway.ford" priority="1" numLanes="1" speed="2.78" allow="army" oneway="0"/>
    <type id="highway.living_street" priority="3" numLanes="1" speed="2.78" disallow="tram rail_urban rail rail_electric ship" oneway="0"/>
    <type id="highway.motorway" priority="13" numLanes="2" speed="44.44" allow="private emergency authority army vip passenger hov taxi bus coach delivery truck trailer motorcycle evehicle custom1 custom2" oneway="1"/>
    <type id="highway.motorway_link" priority="12" numLanes="1" speed="22.22" allow="private emergency authority army vip passenger hov taxi bus coach delivery truck trailer motorcycle evehicle custom1 custom2" oneway="1"/>
    <type id="highway.path" priority="1" numLanes="1" speed="2.78" allow="bicycle pedestrian" oneway="1" width="2.00"/>
    <type id="highway.pedestrian" priority="1" numLanes="1" speed="2.78" allow="pedestrian" oneway="1" width="2.00"/>
    <type id="highway.primary" priority="9" numLanes="2" speed="27.78" disallow="tram rail_urban rail rail_electric ship" oneway="0"/>
    <type id="highway.primary_link" priority="8" numLanes="1" speed="22.22" disallow="tram rail_urban rail rail_electric ship" oneway="0"/>
    <type id="highway.raceway" priority="14" numLanes="2" speed="83.33" allow="vip" oneway="0"/>
    <type id="highway.residential" priority="4" numLanes="1" speed="13.89" disallow="tram rail_urban rail rail_electric ship" oneway="0"/>
    <type id="highway.secondary" priority="7" numLanes="2" speed="27.78" disallow="tram rail_urban rail rail_electric ship" oneway="0"/>
    <type id="highway.secondary_link" priority="6" numLanes="1" speed="22.22" disallow="tram rail_urban rail rail_electric ship" oneway="0"/>
    <type id="highway.service" priority="2" numLanes="1" speed="5.56" allow="delivery bicycle pedestrian" oneway="0"/>
    <type id="highway.services" priority="1" numLanes="1" speed="8.33" disallow="tram rail_urban rail rail_electric ship" oneway="0"/>
    <type id="highway.stairs" priority="1" numLanes="1" speed="1.39" allow="pedestrian" oneway="1" width="2.00"/>
    <type id="highway.step" priority="1" numLanes="1" speed="1.39" allow="pedestrian" oneway="1" width="2.00"/>
    <type id="highway.steps" priority="1" numLanes="1" speed="1.39" allow="pedestrian" oneway="1" width="2.00"/>
    <type id="highway.tertiary" priority="6" numLanes="1" speed="22.22" disallow="tram rail_urban rail rail_electric ship" oneway="0"/>
    <type id="highway.tertiary_link" priority="5" numLanes="1" speed="22.22" disallow="tram rail_urban rail rail_electric ship" oneway="0"/>
    <type id="highway.track" priority="1" numLanes="1" speed="5.56" disallow="tram rail_urban rail rail_electric ship" oneway="0"/>
    <type id="highway.trunk" priority="11" numLanes="2" speed="27.78" disallow="tram rail_urban rail rail_electric bicycle pedestrian ship" oneway="0"/>
    <type id="highway.trunk_link" priority="10" numLanes="1" speed="22.22" disallow="tram rail_urban rail rail_electric bicycle pedestrian ship" oneway="0"/>
    <type id="highway.unclassified" priority="5" numLanes="1" speed="13.89" disallow="tram rail_urban rail rail_electric ship" oneway="0"/>
    <type id="highway.unsurfaced" priority="1" numLanes="1" speed="8.33" disallow="tram rail_urban rail rail_electric ship" oneway="0"/>
    <type id="railway.light_rail" priority="15" numLanes="1" speed="27.78" allow="rail_urban" oneway="1"/>
    <type id="railway.preserved" priority="15" numLanes="1" speed="27.78" allow="rail" oneway="1"/>
    <type id="railway.rail" priority="15" numLanes="1" speed="83.33" allow="rail rail_electric" oneway="1"/>
    <type id="railway.subway" priority="15" numLanes="1" speed="27.78" allow="rail_urban" oneway="1"/>
    <type id="railway.tram" priority="15" numLanes="1" speed="13.89" allow="tram" oneway="1"/>

    <edge id=":1117076519_0" function="internal">
        <lane id=":1117076519_0_0" index="0" disallow="tram rail_urban rail rail_electric ship" speed="13.89" length="5.63" shape="1106.86,482.31 1101.56,480.73"/>
        <lane id=":1117076519_0_1" index="1" disallow="tram rail_urban rail rail_electric ship" speed="13.89" length="5.63" shape="1107.91,479.18 1102.43,477.54"/>
    </edge>
    <edge id=":1117076519_2" function="internal">
        <lane id=":1117076519_2_0" index="0" disallow="tram rail_urban rail rail_electric ship" speed="13.89" length="2.38" shape="1107.91,479.18 1107.10,478.26 1106.95,477.12"/>
    </edge>
    <edge id=":1117076519_3" function="internal">
        <lane id=":1117076519_3_0" index="0" disallow="tram rail_urban rail rail_electric ship" speed="13.89" length="2.41" shape="1107.91,479.18 1107.00,478.00 1106.87,477.09"/>
    </edge>
    <edge id=":1117076519_8" function="internal">
        <lane id=":1117076519_8_0" index="0" speed="13.89" length="8.30" shape="1106.95,477.12 1106.83,476.25 1107.10,473.13 1107.91,468.92"/>
    </edge>
    <edge id=":1117076519_9" function="internal">
        <lane id=":1117076519_9_0" index="0" speed="13.89" length="2.41" shape="1106.87,477.09 1107.53,476.44 1108.96,476.05"/>
    </edge>
    <edge id=":1117076519_4" function="internal">
        <lane id=":1117076519_4_0" index="0" disallow="tram rail_urban rail rail_electric ship" speed="13.89" length="5.05" shape="1104.15,471.18 1105.54,471.34 1106.62,471.02 1107.42,470.21 1107.91,468.92"/>
    </edge>
    <edge id=":1117076519_5" function="internal">
        <lane id=":1117076519_5_0" index="0" disallow="tram rail_urban rail rail_electric ship" speed="13.89" length="6.01" shape="1104.15,471.18 1110.01,472.92"/>
        <lane id=":1117076519_5_1" index="1" disallow="tram rail_urban rail rail_electric ship" speed="13.89" length="6.01" shape="1103.29,474.36 1108.96,476.05"/>
    </edge>
    <edge id=":1117076519_7" function="internal">
        <lane id=":1117076519_7_0" index="0" disallow="tram rail_urban rail rail_electric ship" speed="13.89" length="2.41" shape="1103.29,474.36 1104.27,475.48 1104.45,476.38"/>
    </edge>
    <edge id=":1117076519_10" function="internal">
        <lane id=":1117076519_10_0" index="0" speed="13.89" length="2.41" shape="1104.45,476.38 1103.84,477.07 1102.43,477.54"/>
    </edge>
    <edge id=":1117077095_0" function="internal">
        <lane id=":1117077095_0_0" index="0" disallow="tram rail_urban rail rail_electric ship" speed="18.05" length="2.25" shape="1140.49,325.49 1140.54,324.89 1140.40,324.38 1140.08,323.98 1139.56,323.66"/>
    </edge>
    <edge id=":1117077336_0" function="internal">
        <lane id=":1117077336_0_0" index="0" disallow="tram rail_urban rail rail_electric ship" speed="13.89" length="8.29" shape="1017.19,461.15 1015.07,460.68 1013.56,460.35 1012.11,460.41 1010.17,461.15"/>
        <lane id=":1117077336_0_1" index="1" disallow="tram rail_urban rail rail_electric ship" speed="13.89" length="8.29" shape="1017.75,457.90 1015.02,457.34 1013.07,457.01 1011.20,457.20 1008.71,458.20"/>
    </edge>
    <edge id=":1117077336_2" function="internal">
        <lane id=":1117077336_2_0" index="0" disallow="tram rail_urban rail rail_electric ship" speed="13.89" length="2.41" shape="1017.75,457.90 1016.67,456.88 1016.40,455.99"/>
    </edge>
    <edge id=":1117077336_8" function="internal">
        <lane id=":1117077336_8_0" index="0" speed="13.89" length="2.41" shape="1016.40,455.99 1016.95,455.25 1018.31,454.65"/>
    </edge>
    <edge id=":1117077336_3" function="internal">
        <lane id=":1117077336_3_0" index="0" disallow="tram rail_urban rail rail_electric ship" speed="18.05" length="8.55" shape="1019.57,444.57 1017.71,447.29 1016.97,449.33 1017.36,450.70 1018.86,451.39"/>
    </edge>
    <edge id=":1117077336_4" function="internal">
        <lane id=":1117077336_4_0" index="0" disallow="tram rail_urban rail rail_electric ship" speed="18.05" length="17.79" shape="1019.57,444.57 1017.66,447.81 1015.90,451.40 1013.26,454.99 1008.71,458.20"/>
    </edge>
    <edge id=":1117077336_5" function="internal">
        <lane id=":1117077336_5_0" index="0" disallow="tram rail_urban rail rail_electric ship" speed="13.89" length="12.47" shape="1005.78,452.28 1009.39,450.76 1012.10,450.33 1014.92,450.66 1018.86,451.39"/>
        <lane id=":1117077336_5_1" index="1" disallow="tram rail_urban rail rail_electric ship" speed="13.89" length="12.47" shape="1007.24,455.24 1010.30,453.98 1012.59,453.67 1014.97,454.00 1018.31,454.65"/>
    </edge>
    <edge id=":1117077336_7" function="internal">
        <lane id=":1117077336_7_0" index="0" disallow="tram rail_urban rail rail_electric ship" speed="13.89" length="2.60" shape="1007.24,455.24 1008.72,455.43 1009.45,455.99 1009.45,456.17"/>
    </edge>
    <edge id=":1117077336_9" function="internal">
        <lane id=":1117077336_9_0" index="0" speed="13.89" length="2.22" shape="1009.45,456.17 1009.45,456.91 1008.71,458.20"/>
    </edge>
    <edge id=":1280328128_0" function="internal">
        <lane id=":1280328128_0_0" index="0" disallow="tram rail_urban rail rail_electric ship" speed="13.89" length="0.49" shape="918.31,1164.19 918.16,1164.19 918.06,1164.18 917.96,1164.17 917.81,1164.15"/>
    </edge>
    <edge id=":1280328128_1" function="internal">
        <lane id=":1280328128_1_0" index="0" disallow="tram rail_urban rail rail_electric ship" speed="13.89" length="2.41" shape="918.31,1164.19 917.10,1163.32 916.73,1162.48"/>
    </edge>
    <edge id=":1280328128_4" function="internal">
        <lane id=":1280328128_4_0" index="0" speed="13.89" length="2.41" shape="916.73,1162.48 917.17,1161.67 918.44,1160.90"/>
    </edge>
    <edge id=":1280328128_2" function="internal">
        <lane id=":1280328128_2_0" index="0" disallow="tram rail_urban rail rail_electric ship" speed="13.89" length="0.16" shape="918.28,1160.88 918.33,1160.89 918.36,1160.89 918.39,1160.90 918.44,1160.90"/>
    </edge>
    <edge id=":1280328128_3" function="internal">
        <lane id=":1280328128_3_0" index="0" disallow="tram rail_urban rail rail_electric ship" speed="13.89" length="2.41" shape="918.28,1160.88 919.39,1161.87 919.68,1162.75"/>
    </edge>
    <edge id=":1280328128_5" function="internal">
        <lane id=":1280328128_5_0" index="0" speed="13.89" length="2.41" shape="919.68,1162.75 919.16,1163.51 917.81,1164.15"/>
    </edge>
    <edge id=":1280328142_0" function="internal">
        <lane id=":1280328142_0_0" index="0" disallow="tram rail_urban rail rail_electric ship" speed="13.89" length="0.35" shape="1153.54,497.95 1153.16,497.83"/>
        <lane id=":1280328142_0_1" index="1" disallow="tram rail_urban rail rail_electric ship" speed="13.89" length="0.35" shape="1154.50,494.79 1154.21,494.70"/>
    </edge>
    <edge id=":1280328142_2" function="internal">
        <lane id=":1280328142_2_0" index="0" disallow="tram rail_urban rail rail_electric ship" speed="13.89" length="2.41" shape="1154.50,494.79 1153.55,493.65 1153.39,492.74"/>
    </edge>
    <edge id=":1280328142_6" function="internal">
        <lane id=":1280328142_6_0" index="0" speed="13.89" length="2.41" shape="1153.39,492.74 1154.03,492.07 1155.45,491.63"/>
    </edge>
    <edge id=":1280328142_3" function="internal">
        <lane id=":1280328142_3_0" index="0" disallow="tram rail_urban rail rail_electric ship" speed="13.89" length="0.15" shape="1156.30,488.44 1156.40,488.47"/>
        <lane id=":1280328142_3_1" index="1" disallow="tram rail_urban rail rail_electric ship" speed="13.89" length="0.15" shape="1155.26,491.57 1155.45,491.63"/>
    </edge>
    <edge id=":1280328142_5" function="internal">
        <lane id=":1280328142_5_0" index="0" disallow="tram rail_urban rail rail_electric ship" speed="13.89" length="2.41" shape="1155.26,491.57 1156.17,492.75 1156.30,493.66"/>
    </edge>
    <edge id=":1280328142_7" function="internal">
        <lane id=":1280328142_7_0" index="0" speed="13.89" length="2.41" shape="1156.30,493.66 1155.64,494.31 1154.21,494.70"/>
    </edge>
    <edge id=":1280328154_0" function="internal">
        <lane id=":1280328154_0_0" index="0" disallow="tram rail_urban rail rail_electric ship" speed="13.89" length="0.28" shape="849.54,1154.38 849.26,1154.35"/>
    </edge>
    <edge id=":1280328154_1" function="internal">
        <lane id=":1280328154_1_0" index="0" disallow="tram rail_urban rail rail_electric ship" speed="13.89" length="2.41" shape="849.54,1154.38 848.43,1153.39 848.14,1152.52"/>
    </edge>
    <edge id=":1280328154_4" function="internal">
        <lane id=":1280328154_4_0" index="0" speed="13.89" length="2.41" shape="848.14,1152.52 848.67,1151.76 850.01,1151.12"/>
    </edge>
    <edge id=":1280328154_2" function="internal">
        <lane id=":1280328154_2_0" index="0" disallow="tram rail_urban rail rail_electric ship" speed="13.89" length="0.31" shape="849.70,1151.08 850.01,1151.12"/>
    </edge>
    <edge id=":1280328154_3" function="internal">
        <lane id=":1280328154_3_0" index="0" disallow="tram rail_urban rail rail_electric ship" speed="13.89" length="2.41" shape="849.70,1151.08 850.82,1152.06 851.12,1152.93"/>
    </edge>
    <edge id=":1280328154_5" function="internal">
        <lane id=":1280328154_5_0" index="0" speed="13.89" length="2.41" shape="851.12,1152.93 850.60,1153.69 849.26,1154.35"/>
    </edge>
    <edge id=":1405580779_0" function="internal">
        <lane id=":1405580779_0_0" index="0" disallow="tram rail_urban rail rail_electric ship" speed="13.89" length="9.65" shape="2097.22,1079.52 2093.77,1070.51"/>
    </edge>
    <edge id=":1405580779_1" function="internal">
        <lane id=":1405580779_1_0" index="0" allow="delivery bicycle pedestrian" speed="9.73" length="8.21" shape="2097.22,1079.52 2096.31,1076.79 2096.16,1074.69 2096.79,1073.22 2098.19,1072.39"/>
    </edge>
    <edge id=":1405580779_2" function="internal">
        <lane id=":1405580779_2_0" index="0" disallow="tram rail_urban rail rail_electric ship" speed="9.73" length="8.11" shape="2099.10,1075.56 2097.53,1075.60 2096.12,1074.78 2094.87,1073.08 2093.77,1070.51"/>
    </edge>
    <edge id=":1405580779_3" function="internal">
        <lane id=":1405580779_3_0" index="0" allow="delivery bicycle pedestrian" speed="5.56" length="4.82" shape="2099.10,1075.56 2097.69,1075.11 2097.06,1074.43 2097.23,1073.53 2098.19,1072.39"/>
    </edge>
    <edge id=":1434239763_0" function="internal">
        <lane id=":1434239763_0_0" index="0" disallow="tram rail_urban rail rail_electric ship" speed="8.33" length="0.29" shape="1874.31,1149.12 1874.14,1149.38"/>
        <lane id=":1434239763_0_1" index="1" disallow="tram rail_urban rail rail_electric ship" speed="8.33" length="0.29" shape="1871.56,1147.30 1871.41,1147.52"/>
    </edge>
    <edge id=":1434239764_0" function="internal">
        <lane id=":1434239764_0_0" index="0" disallow="tram rail_urban rail rail_electric ship" speed="8.33" length="0.26" shape="1871.67,1152.97 1871.44,1153.29"/>
        <lane id=":1434239764_0_1" index="1" disallow="tram rail_urban rail rail_electric ship" speed="8.33" length="0.26" shape="1868.95,1151.11 1868.87,1151.21"/>
    </edge>
    <edge id=":1437259668_0" function="internal">
        <lane id=":1437259668_0_0" index="0" disallow="tram rail_urban rail rail_electric ship" speed="13.89" length="5.09" shape="1712.60,482.94 1717.15,485.24"/>
    </edge>
    <edge id=":1437259676_0" function="internal">
        <lane id=":1437259676_0_0" index="0" disallow="tram rail_urban rail rail_electric ship" speed="13.89" length="6.14" shape="1722.95,487.98 1728.55,490.49"/>
    </edge>
    <edge id=":1437259676_1" function="internal">
        <lane id=":1437259676_1_0" index="0" disallow="tram rail_urban rail rail_electric ship" speed="13.89" length="1.62" shape="1724.42,492.11 1725.18,490.96 1725.37,490.82"/>
    </edge>
    <edge id=":1437259676_2" function="internal">
        <lane id=":1437259676_2_0" index="0" speed="13.89" length="3.39" shape="1725.37,490.82 1726.12,490.30 1727.24,490.15 1728.55,490.49"/>
    </edge>
    <edge id=":1437259711_0" function="internal">
        <lane id=":1437259711_0_0" index="0" disallow="tram rail_urban rail rail_electric ship" speed="11.11" length="4.60" shape="1645.77,507.89 1644.51,507.46 1643.42,507.47 1642.49,507.91 1641.74,508.78"/>
    </edge>
    <edge id=":1437259711_1" function="internal">
        <lane id=":1437259711_1_0" index="0" disallow="tram rail_urban rail rail_electric ship" speed="8.33" length="5.54" shape="1644.18,503.82 1643.57,505.35 1643.12,506.38 1642.59,507.37 1641.74,508.78"/>
    </edge>
    <edge id=":1437259720_0" function="internal">
        <lane id=":1437259720_0_0" index="0" disallow="tram rail_urban rail rail_electric ship" speed="13.89" length="3.68" shape="1694.33,536.37 1693.75,536.21 1693.08,536.47 1692.32,537.13 1691.46,538.19"/>
    </edge>
    <edge id=":1437259720_1" function="internal">
        <lane id=":1437259720_1_0" index="0" disallow="tram rail_urban rail rail_electric ship" speed="13.89" length="4.38" shape="1694.33,536.37 1690.73,533.87"/>
    </edge>
    <edge id=":1437259729_0" function="internal">
        <lane id=":1437259729_0_0" index="0" disallow="tram rail_urban rail rail_electric ship" speed="13.89" length="5.85" shape="1538.70,545.08 1538.07,543.99 1537.05,543.21 1535.63,542.74 1533.83,542.58"/>
    </edge>
    <edge id=":1437259729_1" function="internal">
        <lane id=":1437259729_1_0" index="0" disallow="tram rail_urban rail rail_electric ship" speed="13.89" length="9.30" shape="1538.70,545.08 1537.83,542.47 1537.34,540.64 1537.06,538.77 1536.77,536.03"/>
    </edge>
    <edge id=":1437259729_2" function="internal">
        <lane id=":1437259729_2_0" index="0" disallow="tram rail_urban rail rail_electric ship" speed="13.89" length="4.21" shape="1538.70,545.08 1538.29,543.09 1538.49,541.28 1538.65,540.96"/>
    </edge>
    <edge id=":1437259729_6" function="internal">
        <lane id=":1437259729_6_0" index="0" speed="13.89" length="3.53" shape="1538.65,540.96 1539.31,539.63 1540.73,538.16"/>
    </edge>
    <edge id=":1437259729_3" function="internal">
        <lane id=":1437259729_3_0" index="0" disallow="tram rail_urban rail rail_electric ship" speed="13.89" length="5.13" shape="1533.83,539.28 1535.24,539.08 1536.20,538.47 1536.71,537.45 1536.77,536.03"/>
    </edge>
    <edge id=":1437259729_4" function="internal">
        <lane id=":1437259729_4_0" index="0" disallow="tram rail_urban rail rail_electric ship" speed="13.89" length="7.26" shape="1533.83,539.28 1536.00,539.41 1537.57,539.54 1538.99,539.26 1540.73,538.16"/>
    </edge>
    <edge id=":1437259729_5" function="internal">
        <lane id=":1437259729_5_0" index="0" disallow="tram rail_urban rail rail_electric ship" speed="13.89" length="2.61" shape="1533.83,539.28 1535.06,540.11 1535.48,540.93 1535.39,541.11"/>
    </edge>
    <edge id=":1437259729_7" function="internal">
        <lane id=":1437259729_7_0" index="0" speed="13.89" length="2.21" shape="1535.39,541.11 1535.06,541.76 1533.83,542.58"/>
    </edge>
    <edge id=":1437259730_0" function="internal">
        <lane id=":1437259730_0_0" index="0" disallow="tram rail_urban rail rail_electric ship" speed="13.89" length="4.82" shape="1424.09,542.53 1422.85,541.71 1422.44,540.88 1422.85,540.06 1424.09,539.23"/>
    </edge>
    <edge id=":1437259762_0" function="internal">
        <lane id=":1437259762_0_0" index="0" disallow="tram rail_urban rail rail_electric ship" speed="13.89" length="6.22" shape="1381.67,773.30 1375.82,771.18"/>
    </edge>
    <edge id=":1437259762_1" function="internal">
        <lane id=":1437259762_1_0" index="0" disallow="tram rail_urban rail rail_electric ship" speed="13.89" length="1.53" shape="1379.80,769.34 1379.15,770.55 1379.03,770.65"/>
    </edge>
    <edge id=":1437259762_2" function="internal">
        <lane id=":1437259762_2_0" index="0" speed="13.89" length="3.48" shape="1379.03,770.65 1378.27,771.26 1377.16,771.47 1375.82,771.18"/>
    </edge>
    <edge id=":1437373339_0" function="internal">
        <lane id=":1437373339_0_0" index="0" disallow="tram rail_urban rail rail_electric ship" speed="13.89" length="5.36" shape="2236.66,1065.44 2237.72,1066.55 2238.81,1066.93 2239.90,1066.60 2241.02,1065.55"/>
    </edge>
    <edge id=":1437373339_1" function="internal">
        <lane id=":1437373339_1_0" index="0" disallow="tram rail_urban rail rail_electric ship" speed="13.89" length="6.32" shape="2237.07,1070.49 2241.02,1065.55"/>
    </edge>
    <edge id=":1437373707_0" function="internal">
        <lane id=":1437373707_0_0" index="0" disallow="tram rail_urban rail rail_electric ship" speed="13.89" length="5.15" shape="2005.73,1103.37 2004.70,1104.20 2004.16,1105.22 2004.11,1106.43 2004.54,1107.83"/>
    </edge>
    <edge id=":1437373707_1" function="internal">
        <lane id=":1437373707_1_0" index="0" disallow="tram rail_urban rail rail_electric ship" speed="13.89" length="6.22" shape="2005.73,1103.37 2000.36,1106.50"/>
    </edge>
    <edge id=":1437395202_0" function="internal">
        <lane id=":1437395202_0_0" index="0" disallow="tram rail_urban rail rail_electric ship" speed="8.33" length="0.10" shape="1335.03,525.23 1335.03,525.23"/>
    </edge>
    <edge id=":1437395203_0" function="internal">
        <lane id=":1437395203_0_0" index="0" disallow="tram rail_urban rail rail_electric ship" speed="8.33" length="0.30" shape="1344.11,527.21 1343.82,527.15"/>
    </edge>
    <edge id=":1445688869_0" function="internal">
        <lane id=":1445688869_0_0" index="0" disallow="tram rail_urban rail rail_electric ship" speed="13.89" length="5.60" shape="1036.07,464.66 1034.74,464.58 1033.61,465.04 1032.69,466.04 1031.98,467.58"/>
    </edge>
    <edge id=":1445688869_1" function="internal">
        <lane id=":1445688869_1_0" index="0" disallow="tram rail_urban rail rail_electric ship" speed="13.89" length="9.76" shape="1036.07,464.66 1026.60,462.77"/>
        <lane id=":1445688869_1_1" index="1" disallow="tram rail_urban rail rail_electric ship" speed="13.89" length="9.76" shape="1036.84,461.45 1027.16,459.52"/>
    </edge>
    <edge id=":1445688869_3" function="internal">
        <lane id=":1445688869_3_0" index="0" disallow="tram rail_urban rail rail_electric ship" speed="13.89" length="2.41" shape="1036.84,461.45 1035.83,460.36 1035.62,459.46"/>
    </edge>
    <edge id=":1445688869_11" function="internal">
        <lane id=":1445688869_11_0" index="0" speed="13.89" length="2.41" shape="1035.62,459.46 1036.21,458.76 1037.61,458.24"/>
    </edge>
    <edge id=":1445688869_4" function="internal">
        <lane id=":1445688869_4_0" index="0" disallow="tram rail_urban rail rail_electric ship" speed="13.89" length="10.19" shape="1028.28,453.01 1038.38,455.03"/>
        <lane id=":1445688869_4_1" index="1" disallow="tram rail_urban rail rail_electric ship" speed="13.89" length="10.19" shape="1027.72,456.26 1037.61,458.24"/>
    </edge>
    <edge id=":1445688869_6" function="internal">
        <lane id=":1445688869_6_0" index="0" disallow="tram rail_urban rail rail_electric ship" speed="13.89" length="5.06" shape="1027.72,456.26 1030.84,457.46 1031.89,458.83"/>
    </edge>
    <edge id=":1445688869_7" function="internal">
        <lane id=":1445688869_7_0" index="0" disallow="tram rail_urban rail rail_electric ship" speed="13.89" length="2.51" shape="1027.72,456.26 1028.80,457.29 1029.07,458.17 1029.01,458.25"/>
    </edge>
    <edge id=":1445688869_12" function="internal">
        <lane id=":1445688869_12_0" index="0" speed="13.89" length="9.11" shape="1031.89,458.83 1032.59,459.75 1032.97,463.12 1031.98,467.58"/>
    </edge>
    <edge id=":1445688869_13" function="internal">
        <lane id=":1445688869_13_0" index="0" speed="13.89" length="2.31" shape="1029.01,458.25 1028.52,458.91 1027.16,459.52"/>
    </edge>
    <edge id=":1445688869_8" function="internal">
        <lane id=":1445688869_8_0" index="0" disallow="tram rail_urban rail rail_electric ship" speed="13.89" length="5.19" shape="1028.85,466.53 1029.11,465.10 1028.82,463.99 1027.99,463.22 1026.60,462.77"/>
    </edge>
    <edge id=":1445688869_9" function="internal">
        <lane id=":1445688869_9_0" index="0" disallow="tram rail_urban rail rail_electric ship" speed="13.89" length="13.25" shape="1028.85,466.53 1030.61,462.41 1032.65,459.65 1034.98,458.26 1037.61,458.24"/>
    </edge>
    <edge id=":1445688869_10" function="internal">
        <lane id=":1445688869_10_0" index="0" disallow="tram rail_urban rail rail_electric ship" speed="13.89" length="4.82" shape="1028.85,466.53 1030.03,465.62 1030.94,465.49 1031.59,466.14 1031.98,467.58"/>
    </edge>
    <edge id=":1445688870_0" function="internal">
        <lane id=":1445688870_0_0" index="0" disallow="tram rail_urban rail rail_electric ship" speed="13.89" length="4.97" shape="863.89,567.88 862.53,567.52 861.38,567.64 860.44,568.23 859.71,569.31"/>
    </edge>
    <edge id=":1445688870_1" function="internal">
        <lane id=":1445688870_1_0" index="0" disallow="tram rail_urban rail rail_electric ship" speed="13.89" length="7.25" shape="863.89,567.88 861.91,567.05 860.60,566.36 859.40,565.50 857.75,564.12"/>
    </edge>
    <edge id=":1445688870_2" function="internal">
        <lane id=":1445688870_2_0" index="0" disallow="tram rail_urban rail rail_electric ship" speed="13.89" length="4.06" shape="856.73,567.89 857.18,567.01 857.69,565.91 857.97,564.85 857.75,564.12"/>
    </edge>
    <edge id=":1445688870_3" function="internal">
        <lane id=":1445688870_3_0" index="0" disallow="tram rail_urban rail rail_electric ship" speed="13.89" length="2.71" shape="856.73,567.89 858.01,567.13 858.93,567.11 859.11,567.34"/>
    </edge>
    <edge id=":1445688870_4" function="internal">
        <lane id=":1445688870_4_0" index="0" speed="13.89" length="2.11" shape="859.11,567.34 859.50,567.83 859.71,569.31"/>
    </edge>
    <edge id=":1445688873_0" function="internal">
        <lane id=":1445688873_0_0" index="0" disallow="tram rail_urban rail rail_electric ship" speed="13.89" length="5.06" shape="941.95,594.64 940.60,594.43 939.49,594.72 938.64,595.49 938.04,596.76"/>
    </edge>
    <edge id=":1445688873_1" function="internal">
        <lane id=":1445688873_1_0" index="0" disallow="tram rail_urban rail rail_electric ship" speed="13.89" length="9.53" shape="941.95,594.64 932.82,591.92"/>
    </edge>
    <edge id=":1445688873_2" function="internal">
        <lane id=":1445688873_2_0" index="0" disallow="tram rail_urban rail rail_electric ship" speed="13.89" length="5.03" shape="934.89,595.78 935.12,594.41 934.84,593.32 934.08,592.48 932.82,591.92"/>
    </edge>
    <edge id=":1445688873_3" function="internal">
        <lane id=":1445688873_3_0" index="0" disallow="tram rail_urban rail rail_electric ship" speed="13.89" length="2.69" shape="934.89,595.78 936.05,594.84 936.96,594.69 937.16,594.89"/>
    </edge>
    <edge id=":1445688873_4" function="internal">
        <lane id=":1445688873_4_0" index="0" speed="13.89" length="2.13" shape="937.16,594.89 937.63,595.33 938.04,596.76"/>
    </edge>
    <edge id=":1445688876_0" function="internal">
        <lane id=":1445688876_0_0" index="0" disallow="tram rail_urban rail rail_electric ship" speed="13.89" length="9.40" shape="987.86,609.14 978.97,606.09"/>
    </edge>
    <edge id=":1445688876_1" function="internal">
        <lane id=":1445688876_1_0" index="0" disallow="tram rail_urban rail rail_electric ship" speed="13.89" length="7.77" shape="987.86,609.14 985.32,607.99 983.65,606.76 982.83,605.46 982.87,604.09"/>
    </edge>
    <edge id=":1445688876_2" function="internal">
        <lane id=":1445688876_2_0" index="0" disallow="tram rail_urban rail rail_electric ship" speed="13.89" length="1.10" shape="986.00,605.14 985.36,606.03"/>
    </edge>
    <edge id=":1445688876_3" function="internal">
        <lane id=":1445688876_3_0" index="0" disallow="tram rail_urban rail rail_electric ship" speed="13.89" length="1.14" shape="986.00,605.14 985.10,605.84"/>
    </edge>
    <edge id=":1445688876_4" function="internal">
        <lane id=":1445688876_4_0" index="0" speed="13.89" length="6.68" shape="985.36,606.03 985.20,606.26 983.77,606.79 981.69,606.74 978.97,606.09"/>
    </edge>
    <edge id=":1445688876_5" function="internal">
        <lane id=":1445688876_5_0" index="0" speed="13.89" length="3.68" shape="985.10,605.84 984.82,606.05 983.91,606.18 983.26,605.53 982.87,604.09"/>
    </edge>
    <edge id=":1445688878_0" function="internal">
        <lane id=":1445688878_0_0" index="0" disallow="tram rail_urban rail rail_electric ship" speed="13.89" length="6.54" shape="1027.36,621.35 1023.08,626.28"/>
    </edge>
    <edge id=":1445688878_1" function="internal">