<?xml version="1.0" encoding="UTF-8"?>
<!-- generated on 2018-11-13 13:32:39.589754 by $Id$
  options: -n map.net.xml -r map.rou.xml -e 100 -l
-->
<routes xmlns:xsi="http://www.w3.org/2001/XMLSchema-instance" xsi:noNamespaceSchemaLocation="http://sumo.dlr.de/xsd/routes_file.xsd">
    <trip id="0" depart="0.00" from="164482384" to="362819433#1"/>
    <trip id="1" depart="1.00" from="96394728" to="326743654#4"/>
    <trip id="2" depart="2.00" from="32676704" to="31369760"/>
    <trip id="3" depart="3.00" from="-112687933" to="30334315#3"/>
    <trip id="4" depart="4.00" from="31291526#1" to="69805695#2"/>
    <trip id="5" depart="5.00" from="153785251#1" to="30620178"/>
    <trip id="6" depart="6.00" from="35102446#0" to="-31367163#2"/>
    <trip id="7" depart="7.00" from="31368077#1" to="33051403"/>
    <trip id="8" depart="8.00" from="164482377" to="31291526#0"/>
    <trip id="9" depart="9.00" from="290031978" to="151552745#0"/>
    <trip id="10" depart="10.00" from="-31364653#0" to="24417327"/>
    <trip id="11" depart="11.00" from="267417342" to="69805695#2"/>
    <trip id="12" depart="12.00" from="196496908#0" to="290032685"/>
    <trip id="13" depart="13.00" from="362837741" to="-112687929"/>
    <trip id="14" depart="14.00" from="249307662#0" to="289986269#0"/>
    <trip id="15" depart="15.00" from="-31306934#6" to="69800784#2"/>
    <trip id="16" depart="16.00" from="35102446#0" to="310398775#1"/>
    <trip id="17" depart="17.00" from="-131338578" to="112687933"/>
    <trip id="18" depart="18.00" from="35102446#0" to="-31367159#1"/>
    <trip id="19" depart="19.00" from="-131338576" to="427459434#1"/>
    <trip id="20" depart="20.00" from="31294068" to="441741605#0"/>
    <trip id="21" depart="21.00" from="-31306934#2" to="-35134825#2"/>
    <trip id="22" depart="22.00" from="31294075#0" to="69816440#1"/>
    <trip id="23" depart="23.00" from="362837743" to="395874580#0"/>
    <trip id="24" depart="24.00" from="267391592#0" to="-290036201#3"/>
    <trip id="25" depart="25.00" from="-326743656#1" to="-31367159#3"/>
    <trip id="26" depart="26.00" from="-31293293#4" to="31306935"/>
    <trip id="27" depart="27.00" from="31367163#4" to="35134824#2"/>
    <trip id="28" depart="28.00" from="35134824#4" to="-35134827"/>
    <trip id="29" depart="29.00" from="-126592155" to="31294077#2"/>
    <trip id="30" depart="30.00" from="69805695#1" to="163824001#0"/>
    <trip id="31" depart="31.00" from="31368077#0" to="256745716"/>
    <trip id="32" depart="32.00" from="-31368079" to="-35134827"/>
    <trip id="33" depart="33.00" from="-126592155" to="31368077#1"/>
    <trip id="34" depart="34.00" from="249307661" to="35134824#0"/>
    <trip id="35" depart="35.00" from="-290036201#3" to="31364647#3"/>
    <trip id="36" depart="36.00" from="30724866" to="-35134825#0"/>
    <trip id="37" depart="37.00" from="-32676704" to="32668048#1"/>
    <trip id="38" depart="38.00" from="267417342" to="33051403"/>
    <trip id="39" depart="39.00" from="30334315#1" to="-326743654#3"/>
    <trip id="40" depart="40.00" from="130536359" to="164482381#0"/>
    <trip id="41" depart="41.00" from="31293291#8" to="31291529"/>
    <trip id="42" depart="42.00" from="31306936" to="290036201#3"/>
    <trip id="43" depart="43.00" from="-31364639#2" to="-35102446#0"/>
    <trip id="44" depart="44.00" from="35134824#0" to="378042501#0"/>
    <trip id="45" depart="45.00" from="30620184#0" to="31305877#0"/>
    <trip id="46" depart="46.00" from="151552746" to="30334306"/>
    <trip id="47" depart="47.00" from="31368080" to="-35134827"/>
    <trip id="48" depart="48.00" from="35134824#0" to="-290036201#3"/>
    <trip id="49" depart="49.00" from="30334313" to="-69800784#3"/>
    <trip id="50" depart="50.00" from="31306939#0" to="31364647#5"/>
    <trip id="51" depart="51.00" from="-69805695#2" to="153785251#0"/>
    <trip id="52" depart="52.00" from="33051403" to="31369772#1"/>
    <trip id="53" depart="53.00" from="35134825#0" to="310398775#1"/>
    <trip id="54" depart="54.00" from="256745715#1" to="33049033"/>
    <trip id="55" depart="55.00" from="126592155" to="31364653#0"/>
    <trip id="56" depart="56.00" from="31369765" to="267413480#1"/>
    <trip id="57" depart="57.00" from="31364640" to="-33051432#2"/>
    <trip id="58" depart="58.00" from="-395874580#0" to="267417345#1"/>
    <trip id="59" depart="59.00" from="-326743654#4" to="196496908#1"/>
    <trip id="60" depart="60.00" from="31369760" to="130533957"/>
    <trip id="61" depart="61.00" from="-362819433#0" to="131338573#0"/>
    <trip id="62" depart="62.00" from="31294077#2" to="395874580#2"/>
    <trip id="63" depart="63.00" from="326743656#1" to="408878922#1"/>
    <trip id="64" depart="64.00" from="31364647#3" to="267390298"/>
    <trip id="65" depart="65.00" from="-290036201#3" to="31367166#0"/>
    <trip id="66" depart="66.00" from="31291526#2" to="31306934#6"/>
    <trip id="67" depart="67.00" from="-31364653#0" to="69816440#1"/>
    <trip id="68" depart="68.00" from="31306934#1" to="30724857"/>
    <trip id="69" depart="69.00" from="31364653#0" to="-326743654#1"/>
    <trip id="70" depart="70.00" from="31369772#0" to="-69805695#2"/>
    <trip id="71" depart="71.00" from="-131338573#1" to="163827573#1"/>
    <trip id="72" depart="72.00" from="31306936" to="374070424#0"/>
    <trip id="73" depart="73.00" from="31294155#0" to="33051428#2"/>
    <trip id="74" depart="74.00" from="35102446#0" to="33049032"/>
    <trip id="75" depart="75.00" from="-31293293#5" to="31293293#5"/>
    <trip id="76" depart="76.00" from="30620180#0" to="-35102446#0"/>
    <trip id="77" depart="77.00" from="310398775#0" to="-290036201#1"/>
    <trip id="78" depart="78.00" from="362836310" to="30620178"/>
    <trip id="79" depart="79.00" from="69805695#2" to="32676704"/>
    <trip id="80" depart="80.00" from="-30724863#0" to="31293293#4"/>
    <trip id="81" depart="81.00" from="69805695#2" to="30724864"/>
    <trip id="82" depart="82.00" from="130536360#4" to="33051425"/>
    <trip id="83" depart="83.00" from="441741605#0" to="31368077#2"/>
    <trip id="84" depart="84.00" from="30620177#0" to="33051425"/>
    <trip id="85" depart="85.00" from="-31293293#2" to="-33051432#0"/>
    <trip id="86" depart="86.00" from="-31306934#6" to="130518599"/>
    <trip id="87" depart="87.00" from="267417345#1" to="35134824#4"/>
    <trip id="88" depart="88.00" from="-69800784#0" to="362819433#0"/>
    <trip id="89" depart="89.00" from="30334315#1" to="24417327"/>
    <trip id="90" depart="90.00" from="162409542#1" to="326743654#1"/>
    <trip id="91" depart="91.00" from="-158700232#2" to="33049034#1"/>
    <trip id="92" depart="92.00" from="-31367163#4" to="289559368#1"/>
    <trip id="93" depart="93.00" from="31364653#0" to="-112687944"/>
    <trip id="94" depart="94.00" from="35134827" to="249307662#0"/>
    <trip id="95" depart="95.00" from="31306364#0" to="31293293#5"/>
    <trip id="96" depart="96.00" from="31368077#1" to="-31294086#1"/>
    <trip id="97" depart="97.00" from="-326743654#1" to="362819226#0"/>
    <trip id="98" depart="98.00" from="30620178" to="-374070424#1"/>
    <trip id="99" depart="99.00" from="-290032842" to="69805695#3"/>
</routes>
