<?xml version="1.0" encoding="UTF-8"?>

<!-- generated on Mon Mar  6 17:00:37 2017 by SUMO polyconvert Version 0.25.0
<?xml version="1.0" encoding="UTF-8"?>

<configuration xmlns:xsi="http://www.w3.org/2001/XMLSchema-instance" xsi:noNamespaceSchemaLocation="http://sumo.dlr.de/xsd/polyconvertConfiguration.xsd">

    <input>
        <net-file value="map.net.xml"/>
        <osm-files value="map.osm"/>
        <type-file value="typemap.xml"/>
    </input>

    <output>
        <output-file value="map.poly.xml"/>
    </output>

    <processing>
        <poi-layer-offset value="5"/>
    </processing>

</configuration>
-->

<additional xmlns:xsi="http://www.w3.org/2001/XMLSchema-instance" xsi:noNamespaceSchemaLocation="http://sumo.dlr.de/xsd/additional_file.xsd">
    <location netOffset="-510356.08,-5203180.47" convBoundary="-1063.81,-1170.99,5048.99,4747.63" origBoundary="3.122218,46.971541,3.202564,47.024763" projParameter="+proj=utm +zone=31 +ellps=WGS84 +datum=WGS84 +units=m +no_defs"/>

    <poly id="126000799" type="building" color="255,230,230" fill="1" layer="-1.00" shape="1783.05,964.28 1783.56,962.94 1785.33,958.24 1788.18,960.34 1789.04,959.20 1791.12,960.78 1790.25,961.89 1793.18,964.09 1791.93,967.52 1788.87,966.41 1783.05,964.28"/>
    <poly id="126000804" type="building" color="255,230,230" fill="1" layer="-1.00" shape="2057.31,931.32 2058.21,925.92 2058.38,925.22 2066.19,927.03 2065.89,928.71 2069.08,929.32 2068.70,931.48 2065.41,930.98 2065.15,932.09 2057.31,931.32"/>
    <poly id="126000808" type="building" color="255,230,230" fill="1" layer="-1.00" shape="2349.55,745.48 2342.74,752.00 2337.86,747.05 2344.76,740.34 2347.09,738.02 2350.33,734.87 2355.20,740.08 2351.71,743.42 2348.04,739.73 2346.01,741.74 2349.55,745.48"/>
    <poly id="126000809" type="building" color="255,230,230" fill="1" layer="-1.00" shape="2076.64,1113.08 2069.47,1116.49 2066.23,1110.77 2063.17,1103.65 2070.38,1099.13 2072.06,1102.88 2071.80,1103.77 2071.97,1106.76 2074.09,1109.02 2074.95,1109.37 2076.64,1113.08"/>
    <poly id="126000821" type="building" color="255,230,230" fill="1" layer="-1.00" shape="1673.66,1225.06 1674.66,1223.73 1685.57,1230.55 1688.55,1232.84 1683.63,1239.84 1682.34,1241.61 1679.83,1239.90 1680.61,1238.66 1671.46,1232.52 1675.30,1226.26 1673.66,1225.06"/>
    <poly id="126000826" type="building" color="255,230,230" fill="1" layer="-1.00" shape="1934.54,662.43 1934.03,661.27 1933.51,660.21 1933.08,659.42 1939.85,658.88 1939.68,666.48 1938.43,668.10 1936.35,665.62 1936.01,665.10 1935.23,663.65 1934.54,662.43"/>
    <poly id="126000846" type="building" color="255,230,230" fill="1" layer="-1.00" shape="1448.68,1340.05 1450.02,1355.84 1440.31,1356.70 1439.97,1352.25 1439.15,1352.28 1438.58,1345.83 1440.70,1345.61 1441.05,1349.04 1447.39,1348.50 1446.61,1340.33 1448.68,1340.05"/>
    <poly id="126000849" type="building" color="255,230,230" fill="1" layer="-1.00" shape="2353.09,873.92 2360.43,871.89 2360.73,872.81 2367.85,871.13 2372.21,886.61 2378.81,884.98 2380.84,892.86 2361.85,897.79 2357.84,883.59 2355.89,883.99 2353.09,873.92"/>
    <poly id="126000851" type="building" color="255,230,230" fill="1" layer="-1.00" shape="1950.03,1035.80 1949.34,1033.51 1957.84,1030.13 1960.61,1038.55 1958.62,1039.28 1957.54,1039.70 1952.23,1041.67 1944.72,1044.46 1943.13,1038.17 1948.26,1036.39 1950.03,1035.80"/>
    <poly id="126000859" type="building" color="255,230,230" fill="1" layer="-1.00" shape="1853.60,1031.60 1853.55,1031.79 1845.27,1029.34 1848.11,1019.90 1852.64,1017.99 1862.48,1021.61 1863.65,1034.43 1860.75,1033.72 1861.54,1031.11 1854.50,1028.64 1853.60,1031.60"/>
    <poly id="126000865" type="building" color="255,230,230" fill="1" layer="-1.00" shape="2032.53,1190.36 2032.23,1190.10 2033.83,1188.41 2038.06,1183.87 2041.84,1188.43 2035.81,1195.94 2034.69,1197.59 2031.68,1195.22 2034.30,1191.97 2032.53,1190.36"/>
    <poly id="126000867" type="building" color="255,230,230" fill="1" layer="-1.00" shape="2252.38,1016.28 2252.38,1015.96 2252.03,1004.99 2253.63,1005.15 2253.67,1004.65 2259.98,1005.18 2259.85,1006.14 2257.56,1015.71 2257.48,1016.11 2252.38,1016.28"/>
    <poly id="126000880" type="building" color="255,230,230" fill="1" layer="-1.00" shape="1759.14,752.87 1759.74,751.11 1761.73,744.40 1769.32,746.89 1767.55,753.59 1766.47,757.40 1765.49,761.25 1765.18,762.56 1760.78,761.54 1762.42,753.97 1759.14,752.87"/>
    <poly id="126000881" type="building" color="255,230,230" fill="1" layer="-1.00" shape="1539.42,1263.83 1517.80,1264.24 1509.30,1264.43 1508.87,1254.59 1508.36,1234.94 1523.38,1234.71 1534.24,1234.21 1548.10,1233.51 1548.49,1243.55 1539.08,1243.90 1539.42,1263.83"/>
    <poly id="126000893" type="building" color="255,230,230" fill="1" layer="-1.00" shape="2311.71,784.13 2310.41,782.89 2309.08,781.18 2316.12,769.96 2314.00,768.79 2312.53,767.99 2317.45,761.51 2325.04,766.02 2320.99,772.50 2319.69,771.80 2311.71,784.13"/>
    <poly id="126000910" type="building" color="255,230,230" fill="1" layer="-1.00" shape="2206.34,1065.06 2208.97,1069.93 2208.76,1070.79 2202.80,1068.78 2202.63,1068.65 2198.88,1067.48 2199.27,1063.79 2199.69,1059.56 2200.30,1053.78 2200.63,1054.40 2202.93,1058.70 2206.34,1065.06"/>
    <poly id="126000914" type="building" color="255,230,230" fill="1" layer="-1.00" shape="2104.81,1202.07 2100.32,1200.86 2101.79,1197.69 2111.41,1198.93 2120.78,1200.14 2118.92,1206.34 2109.21,1203.28 2108.95,1203.19 2109.30,1201.06 2105.20,1200.59 2104.81,1202.07"/>
    <poly id="126000915" type="building" color="255,230,230" fill="1" layer="-1.00" shape="1997.11,722.23 1997.33,721.99 2000.95,725.01 2000.09,725.91 1999.96,725.78 1992.28,733.66 1991.84,734.11 1987.74,729.60 1988.39,728.90 1989.60,730.04 1997.11,722.23"/>
    <poly id="126000917" type="building" color="255,230,230" fill="1" layer="-1.00" shape="1996.12,1217.05 1991.50,1220.20 1990.90,1219.60 1989.04,1221.25 1984.86,1216.47 1994.52,1209.26 2001.51,1217.05 2000.69,1218.00 2000.17,1218.60 1997.54,1215.84 1996.12,1217.05"/>
    <poly id="126000920" type="building" color="255,230,230" fill="1" layer="-1.00" shape="1161.17,698.77 1167.26,690.69 1172.13,694.16 1178.35,698.61 1184.26,705.25 1171.05,717.74 1161.05,712.15 1157.03,709.89 1154.02,708.30 1154.49,707.64 1161.17,698.77"/>
    <poly id="126000921" type="building" color="255,230,230" fill="1" layer="-1.00" shape="1812.21,1018.63 1812.00,1018.57 1807.38,1016.85 1812.21,1002.99 1822.62,1006.82 1819.53,1015.24 1810.48,1011.95 1809.37,1015.29 1812.90,1016.66 1812.69,1017.23 1812.21,1018.63"/>
    <poly id="126000925" type="building" color="255,230,230" fill="1" layer="-1.00" shape="1062.49,1017.70 1065.08,1008.26 1072.42,1010.46 1072.89,1009.26 1076.17,1010.17 1074.23,1016.85 1073.15,1021.90 1069.44,1020.95 1069.87,1019.42 1066.72,1018.69 1062.49,1017.70"/>
    <poly id="126000927" type="building" color="255,230,230" fill="1" layer="-1.00" shape="1726.57,942.13 1728.81,938.12 1729.67,937.33 1730.58,936.57 1731.57,935.92 1741.93,942.12 1733.16,958.34 1726.09,952.14 1730.36,944.26 1727.60,942.73 1726.57,942.13"/>
    <poly id="126000935" type="building" color="255,230,230" fill="1" layer="-1.00" shape="1556.77,1296.57 1563.83,1296.36 1573.84,1296.06 1573.21,1304.58 1558.36,1304.89 1558.41,1302.99 1559.44,1301.75 1561.65,1301.72 1561.47,1298.38 1556.86,1298.57 1556.77,1296.57"/>
    <poly id="126000946" type="building" color="255,230,230" fill="0" layer="-1.00" shape="1754.39,1022.76 1754.70,1022.41 1763.67,1015.80 1769.67,1025.08 1769.84,1027.97 1762.21,1042.47 1752.41,1037.09 1757.71,1027.08 1754.91,1022.69 1754.44,1022.83"/>
    <poly id="126000964" type="building" color="255,230,230" fill="1" layer="-1.00" shape="1444.71,658.69 1447.73,647.11 1458.22,650.20 1458.04,650.84 1456.32,656.59 1454.81,661.59 1452.22,660.88 1451.92,661.84 1450.62,661.46 1450.93,660.47 1444.71,658.69"/>
    <poly id="126000967" type="building" color="255,230,230" fill="1" layer="-1.00" shape="2062.26,1047.96 2059.59,1043.14 2062.52,1041.25 2062.39,1041.01 2067.18,1038.11 2067.40,1038.36 2074.65,1033.47 2078.14,1038.72 2066.10,1045.71 2065.07,1046.35 2062.26,1047.96"/>
    <poly id="126000975" type="building" color="255,230,230" fill="1" layer="-1.00" shape="1949.34,1033.51 1947.62,1027.40 1948.01,1027.30 1946.45,1022.76 1949.95,1022.03 1954.00,1021.14 1954.26,1021.14 1957.67,1029.84 1957.80,1029.94 1957.84,1030.13 1949.34,1033.51"/>
    <poly id="126000981" type="building" color="255,230,230" fill="1" layer="-1.00" shape="1070.69,912.57 1072.37,913.14 1072.90,913.33 1073.97,913.71 1074.36,913.84 1068.62,929.79 1058.91,926.55 1064.73,910.51 1069.70,912.21 1069.48,912.95 1070.35,913.27 1070.69,912.57"/>
    <poly id="126000987" type="building" color="255,230,230" fill="1" layer="-1.00" shape="1782.87,1064.68 1791.29,1059.05 1797.07,1068.28 1788.61,1073.90 1788.31,1073.43 1787.32,1074.09 1786.41,1073.93 1785.12,1071.80 1785.29,1071.10 1786.41,1070.37 1782.87,1064.68"/>
    <poly id="126000991" type="building" color="255,230,230" fill="1" layer="-1.00" shape="1296.96,1351.62 1295.67,1331.02 1278.75,1331.53 1262.88,1332.00 1267.02,1354.09 1259.25,1354.77 1252.91,1323.39 1273.58,1322.69 1301.97,1321.83 1304.22,1351.04 1296.96,1351.62"/>
    <poly id="126000994" type="building" color="255,230,230" fill="1" layer="-1.00" shape="2153.14,1274.61 2154.65,1274.61 2162.67,1274.73 2164.23,1274.76 2176.09,1274.96 2177.39,1279.12 2161.25,1280.07 2157.19,1279.41 2153.40,1279.31 2153.40,1279.05 2153.14,1274.61"/>
    <poly id="126001004" type="building" color="255,230,230" fill="1" layer="-1.00" shape="1609.15,979.32 1620.46,986.34 1620.29,986.56 1622.53,987.96 1624.65,989.29 1633.19,994.60 1612.09,1028.48 1602.55,1023.62 1598.84,978.14 1606.26,977.50 1609.15,979.32"/>
    <poly id="126001006" type="building" color="255,230,230" fill="1" layer="-1.00" shape="1682.59,1381.81 1689.94,1389.65 1682.86,1398.78 1676.25,1390.96 1679.27,1386.38 1677.55,1385.18 1676.89,1383.65 1678.02,1382.03 1679.61,1382.04 1681.60,1383.43 1682.59,1381.81"/>
    <poly id="126001015" type="building" color="255,230,230" fill="1" layer="-1.00" shape="1698.13,1325.93 1697.48,1326.54 1694.20,1329.66 1678.49,1311.28 1673.32,1305.25 1676.64,1302.20 1681.91,1308.30 1683.03,1307.12 1687.51,1312.18 1686.95,1312.78 1698.13,1325.93"/>
    <poly id="126001017" type="building" color="255,230,230" fill="1" layer="-1.00" shape="2365.65,791.51 2374.88,800.79 2367.42,807.84 2361.76,813.19 2353.87,820.68 2351.11,817.63 2364.18,805.04 2364.61,805.43 2367.81,802.41 2362.11,796.27 2365.65,791.51"/>
    <poly id="126001019" type="building" color="255,230,230" fill="1" layer="-1.00" shape="2168.80,1143.94 2168.24,1141.69 2167.08,1137.22 2166.86,1136.38 2171.99,1135.02 2171.60,1133.53 2176.65,1132.25 2177.13,1133.77 2182.04,1132.50 2184.07,1140.07 2168.80,1143.94"/>
    <poly id="126001027" type="building" color="255,230,230" fill="1" layer="-1.00" shape="2032.53,1220.64 2024.77,1214.79 2023.43,1213.77 2027.27,1209.14 2027.45,1208.85 2033.48,1213.36 2035.30,1214.76 2037.32,1216.28 2035.00,1219.36 2033.48,1221.41 2032.53,1220.64"/>
    <poly id="126001035" type="building" color="255,230,230" fill="1" layer="-1.00" shape="2266.28,1341.79 2258.63,1337.92 2262.18,1333.95 2265.76,1329.98 2271.15,1332.95 2269.90,1335.22 2266.28,1341.79"/>
    <poly id="126001036" type="building" color="255,230,230" fill="1" layer="-1.00" shape="1926.60,686.57 1927.34,685.92 1929.10,684.34 1933.98,689.55 1933.77,689.68 1927.85,693.34 1927.77,693.24 1925.01,695.17 1922.76,691.71 1921.81,690.31 1926.60,686.57"/>
    <poly id="126001038" type="building" color="255,230,230" fill="1" layer="-1.00" shape="2224.76,1279.06 2206.68,1288.69 2205.84,1286.54 2204.70,1281.92 2216.22,1275.72 2212.45,1266.65 2212.25,1266.12 2214.06,1265.51 2218.12,1264.15 2218.46,1264.06 2224.76,1279.06"/>
    <poly id="126001043" type="building" color="255,230,230" fill="1" layer="-1.00" shape="1602.08,1364.01 1600.96,1361.56 1600.66,1360.93 1597.37,1353.68 1611.10,1348.37 1611.96,1351.81 1614.38,1351.30 1615.97,1355.97 1613.51,1356.89 1614.25,1359.52 1602.08,1364.01"/>
    <poly id="126001051" type="building" color="255,230,230" fill="1" layer="-1.00" shape="1597.20,958.27 1606.34,951.00 1606.22,950.86 1613.59,945.59 1618.73,959.80 1616.40,961.52 1612.43,964.47 1609.80,966.40 1608.55,967.30 1598.02,968.19 1597.20,958.27"/>
    <poly id="126001067" type="building" color="255,230,230" fill="1" layer="-1.00" shape="2098.47,1130.28 2101.62,1128.57 2113.36,1122.97 2115.51,1126.69 2105.16,1131.23 2102.46,1132.38 2098.68,1133.46 2101.95,1139.60 2100.84,1140.20 2096.35,1142.58 2094.67,1143.43 2091.74,1138.13 2091.05,1136.93 2087.77,1131.81 2096.01,1127.61 2096.74,1127.26 2097.56,1128.69 2098.47,1130.28"/>
    <poly id="126001072" type="building" color="255,230,230" fill="1" layer="-1.00" shape="1939.81,846.53 1939.59,847.86 1939.89,847.96 1939.68,849.16 1935.92,848.46 1936.18,847.10 1935.75,846.94 1936.05,844.94 1939.98,845.35 1939.90,845.76 1939.81,846.53"/>
    <poly id="126001084" type="building" color="255,230,230" fill="1" layer="-1.00" shape="1560.09,1331.47 1560.05,1327.01 1562.12,1327.08 1562.16,1328.50 1563.93,1327.84 1563.89,1325.46 1563.07,1325.43 1563.11,1324.79 1571.27,1325.62 1570.92,1332.20 1560.09,1331.47"/>
    <poly id="126001107" type="building" color="255,230,230" fill="1" layer="-1.00" shape="2171.39,833.53 2173.72,833.62 2173.50,836.99 2173.41,839.53 2173.46,841.25 2173.72,847.38 2168.63,847.19 2168.32,838.13 2168.37,837.76 2171.43,837.79 2171.39,833.53"/>
    <poly id="126001110" type="building" color="255,230,230" fill="1" layer="-1.00" shape="2030.42,1225.63 2033.48,1221.41 2035.00,1219.36 2035.95,1220.10 2036.42,1219.40 2037.41,1220.16 2036.64,1221.30 2041.98,1225.21 2030.50,1241.43 2022.57,1236.21 2030.42,1225.63"/>
    <poly id="126001118" type="building" color="255,230,230" fill="1" layer="-1.00" shape="1986.24,789.60 1987.27,789.41 1988.00,789.28 1988.26,789.41 1989.55,802.86 1985.63,803.39 1985.50,800.31 1985.38,797.87 1984.94,793.63 1986.49,793.42 1986.24,789.60"/>
    <poly id="126001119" type="building" color="255,230,230" fill="1" layer="-1.00" shape="843.94,770.31 852.44,776.09 845.80,783.05 835.62,798.53 833.28,805.36 824.48,800.28 834.27,785.28 837.68,787.31 838.64,785.73 835.23,783.63 843.94,770.31"/>
    <poly id="126001120" type="building" color="255,230,230" fill="1" layer="-1.00" shape="1347.71,1081.59 1348.65,1075.92 1349.95,1068.04 1365.27,1066.88 1365.10,1068.59 1363.72,1080.51 1358.45,1081.02 1358.46,1081.94 1356.60,1082.01 1356.47,1081.05 1347.71,1081.59"/>
    <poly id="126001130" type="building" color="255,230,230" fill="1" layer="-1.00" shape="2188.74,972.73 2184.25,972.58 2182.61,963.20 2182.18,960.53 2189.60,959.29 2190.03,959.25 2190.98,965.39 2191.24,967.17 2190.03,969.08 2188.56,968.98 2188.74,972.73"/>
    <poly id="126001133" type="building" color="255,230,230" fill="1" layer="-1.00" shape="1993.01,772.66 1996.68,777.71 1987.62,782.93 1986.58,783.50 1985.33,784.17 1982.74,778.42 1993.01,772.66"/>
    <poly id="126001136" type="building" color="255,230,230" fill="1" layer="-1.00" shape="2136.05,1261.19 2134.71,1267.36 2133.76,1271.97 2133.37,1273.78 2132.68,1275.84 2128.84,1287.04 2123.15,1285.00 2128.28,1269.37 2130.70,1269.99 2132.56,1261.25 2136.05,1261.19"/>
    <poly id="126001148" type="building" color="255,230,230" fill="1" layer="-1.00" shape="1852.35,1048.44 1851.61,1051.05 1839.91,1047.84 1842.68,1038.14 1851.01,1040.59 1851.74,1040.78 1852.04,1040.82 1851.96,1041.16 1851.48,1041.07 1849.54,1047.65 1852.35,1048.44"/>
    <poly id="126001152" type="building" color="255,230,230" fill="1" layer="-1.00" shape="1982.74,778.42 1978.34,780.42 1976.23,775.84 1978.34,774.66 1989.43,767.83 1993.01,772.66 1982.74,778.42"/>
    <poly id="126001163" type="building" color="255,230,230" fill="1" layer="-1.00" shape="2065.72,1051.58 2066.10,1052.25 2065.37,1052.64 2064.34,1053.15 2062.35,1054.13 2059.55,1049.49 2062.26,1047.96 2065.07,1046.35 2065.76,1047.46 2063.78,1048.57 2065.72,1051.58"/>
    <poly id="126001164" type="building" color="255,230,230" fill="1" layer="-1.00" shape="1645.01,1209.13 1640.91,1206.59 1639.10,1210.31 1641.04,1211.36 1638.88,1215.23 1634.36,1212.60 1632.41,1212.08 1632.63,1210.34 1634.05,1199.29 1643.63,1204.94 1645.01,1209.13"/>
    <poly id="126001183" type="building" color="255,230,230" fill="1" layer="-1.00" shape="2403.96,1303.88 2396.37,1306.48 2394.81,1301.59 2395.94,1301.17 2394.78,1297.56 2391.24,1298.66 2388.09,1288.62 2391.67,1287.35 2389.90,1281.82 2396.37,1279.25 2403.96,1303.88"/>
    <poly id="126001186" type="building" color="255,230,230" fill="1" layer="-1.00" shape="1846.04,1078.07 1843.54,1080.13 1842.42,1081.05 1841.30,1080.32 1838.41,1078.44 1836.08,1076.91 1835.70,1077.59 1835.59,1077.73 1832.30,1074.27 1833.75,1069.32 1846.04,1078.07"/>
    <poly id="126001193" type="building" color="255,230,230" fill="1" layer="-1.00" shape="1139.82,1091.10 1140.16,1087.25 1141.37,1072.15 1142.01,1063.89 1142.28,1061.00 1143.18,1049.65 1149.66,1051.18 1149.10,1058.13 1146.25,1091.60 1139.82,1091.10"/>
    <poly id="126001194" type="building" color="255,230,230" fill="1" layer="-1.00" shape="1464.04,665.75 1465.42,660.02 1466.93,653.85 1474.66,656.49 1474.01,659.96 1473.84,660.81 1473.62,661.65 1473.36,662.47 1472.89,664.22 1471.68,668.19 1464.04,665.75"/>
    <poly id="126001198" type="building" color="255,230,230" fill="1" layer="-1.00" shape="2004.53,1219.66 2005.91,1220.74 1997.40,1230.50 1993.44,1225.69 1996.72,1222.61 1999.01,1219.91 2000.17,1218.60 2002.28,1220.64 2003.19,1219.69 2003.93,1220.39 2004.53,1219.66"/>
    <poly id="126001202" type="building" color="255,230,230" fill="1" layer="-1.00" shape="2198.18,1390.61 2199.70,1389.53 2202.58,1387.41 2205.04,1385.56 2205.91,1384.73 2206.64,1384.12 2207.25,1383.43 2207.76,1382.67 2213.33,1385.87 2201.81,1393.32 2198.18,1390.61"/>
    <poly id="126001206" type="building" color="255,230,230" fill="1" layer="-1.00" shape="1903.05,1056.14 1898.73,1056.19 1902.87,1050.48 1902.70,1046.34 1902.53,1041.48 1902.79,1041.41 1902.65,1036.59 1911.85,1039.83 1915.04,1043.45 1917.41,1055.72 1903.05,1056.14"/>
    <poly id="126001210" type="building" color="255,230,230" fill="1" layer="-1.00" shape="2315.16,876.17 2310.80,871.54 2320.26,863.56 2316.72,859.24 2313.61,855.42 2310.72,851.86 2312.48,850.50 2314.94,848.56 2315.94,847.76 2329.15,864.26 2315.16,876.17"/>
    <poly id="126001211" type="building" color="255,230,230" fill="1" layer="-1.00" shape="1705.29,753.52 1708.14,747.14 1709.91,743.08 1713.18,735.19 1716.85,736.43 1716.64,737.07 1713.62,744.76 1709.09,755.05 1705.29,753.52"/>
    <poly id="126001216" type="building" color="255,230,230" fill="1" layer="-1.00" shape="2340.15,1326.16 2379.42,1312.34 2396.37,1306.48 2403.96,1303.88 2411.78,1301.20 2414.02,1307.05 2398.27,1312.84 2363.88,1325.24 2363.11,1323.49 2341.78,1331.18 2340.15,1326.16"/>
    <poly id="126001218" type="building" color="255,230,230" fill="1" layer="-1.00" shape="2225.89,915.11 2227.09,909.80 2233.52,911.74 2233.09,914.28 2232.79,914.26 2230.42,928.81 2229.17,928.62 2226.84,928.20 2223.13,927.51 2225.02,918.90 2225.89,915.11"/>
    <poly id="126001223" type="building" color="255,230,230" fill="1" layer="-1.00" shape="1004.98,1395.98 1000.31,1389.98 1006.01,1385.56 1005.28,1384.64 1010.80,1380.35 1011.45,1381.15 1014.00,1379.14 1017.96,1384.26 1015.42,1386.29 1016.19,1387.31 1004.98,1395.98"/>
    <poly id="126001229" type="building" color="255,230,230" fill="1" layer="-1.00" shape="1832.45,677.95 1836.64,678.84 1835.17,682.52 1833.96,685.45 1832.41,689.26 1831.29,692.16 1830.33,694.38 1827.88,699.18 1822.70,696.39 1826.45,689.26 1832.45,677.95"/>
    <poly id="126001232" type="building" color="255,230,230" fill="1" layer="-1.00" shape="2144.77,1158.89 2151.84,1157.97 2157.71,1157.20 2158.58,1162.93 2154.56,1163.36 2150.46,1163.78 2149.77,1159.81 2148.65,1159.96 2148.78,1161.05 2145.07,1161.55 2144.77,1158.89"/>
    <poly id="126001235" type="building" color="255,230,230" fill="1" layer="-1.00" shape="2354.00,783.21 2362.41,788.24 2362.58,788.39 2359.09,794.72 2356.11,798.40 2355.77,798.81 2344.20,792.21 2349.25,783.69 2351.50,785.03 2353.26,784.45 2354.00,783.21"/>
    <poly id="126001236" type="building" color="255,230,230" fill="1" layer="-1.00" shape="2398.78,1134.06 2397.75,1132.57 2396.93,1131.39 2396.11,1130.21 2394.86,1128.24 2395.20,1126.81 2395.81,1124.18 2401.77,1125.55 2399.99,1131.11 2401.03,1133.14 2398.78,1134.06"/>
    <poly id="126001239" type="building" color="255,230,230" fill="1" layer="-1.00" shape="1637.28,962.69 1625.20,955.03 1626.54,954.08 1626.46,953.89 1633.83,948.42 1635.77,946.99 1635.77,946.42 1643.20,951.16 1637.20,960.97 1638.06,961.48 1637.28,962.69"/>
    <poly id="126001244" type="building" color="255,230,230" fill="1" layer="-1.00" shape="1766.43,830.54 1765.74,833.43 1765.70,833.66 1752.97,825.61 1760.99,813.34 1768.29,818.08 1769.28,818.81 1768.20,823.23 1766.52,822.15 1762.68,828.06 1766.43,830.54"/>
    <poly id="126001251" type="building" color="255,230,230" fill="1" layer="-1.00" shape="1606.22,950.86 1606.34,951.00 1597.20,958.27 1596.20,945.40 1604.11,944.77 1604.11,944.48 1607.47,944.25 1607.73,947.98 1605.58,948.14 1605.66,949.88 1606.22,950.86"/>
    <poly id="126001254" type="building" color="255,230,230" fill="1" layer="-1.00" shape="1567.69,1217.30 1572.39,1217.11 1572.43,1215.68 1579.38,1215.78 1579.60,1215.78 1579.12,1223.15 1572.43,1223.05 1572.47,1225.98 1566.22,1226.23 1566.01,1217.33 1567.69,1217.30"/>
    <poly id="126001256" type="building" color="255,230,230" fill="1" layer="-1.00" shape="1532.95,1379.36 1525.01,1379.71 1521.56,1379.87 1521.26,1372.46 1525.10,1372.21 1525.01,1370.66 1530.06,1370.33 1530.28,1373.29 1532.65,1373.16 1532.74,1374.89 1532.95,1379.36"/>
    <poly id="126001270" type="building" color="255,230,230" fill="1" layer="-1.00" shape="1718.71,1335.56 1720.40,1337.57 1720.17,1337.76 1725.27,1344.15 1718.90,1352.29 1712.24,1344.31 1714.82,1340.71 1715.95,1341.32 1718.49,1337.95 1717.50,1337.25 1718.71,1335.56"/>
    <poly id="126001272" type="building" color="255,230,230" fill="1" layer="-1.00" shape="1658.38,1050.06 1657.26,1052.12 1652.26,1061.35 1642.98,1056.48 1648.33,1046.47 1648.80,1045.67 1650.88,1046.82 1649.67,1049.07 1654.72,1051.77 1656.32,1048.92 1658.38,1050.06"/>
    <poly id="126001286" type="building" color="255,230,230" fill="1" layer="-1.00" shape="1239.88,661.90 1234.40,659.83 1240.79,643.15 1249.93,646.58 1263.01,651.47 1259.47,660.88 1251.79,657.95 1240.92,653.77 1240.44,654.98 1242.12,655.67 1239.88,661.90"/>
    <poly id="126001288" type="building" color="255,230,230" fill="1" layer="-1.00" shape="1785.81,1004.61 1783.77,1003.34 1784.94,1001.98 1787.79,993.97 1795.64,996.85 1792.19,1006.08 1792.10,1006.27 1790.89,1005.72 1791.28,1004.77 1786.93,1002.70 1785.81,1004.61"/>
    <poly id="126001289" type="building" color="255,230,230" fill="1" layer="-1.00" shape="2372.85,1177.48 2369.14,1177.32 2369.36,1173.66 2362.41,1172.74 2362.93,1167.85 2363.49,1162.89 2373.85,1164.42 2373.54,1167.05 2372.77,1174.10 2373.24,1174.17 2372.85,1177.48"/>
    <poly id="126001297" type="building" color="255,230,230" fill="1" layer="-1.00" shape="2170.22,924.26 2170.10,923.98 2173.59,923.06 2173.98,924.10 2177.09,923.19 2177.17,923.41 2176.78,929.03 2176.48,934.57 2170.01,932.46 2169.96,932.31 2170.22,924.26"/>
    <poly id="126001301" type="building" color="255,230,230" fill="1" layer="-1.00" shape="1998.15,1136.54 1999.91,1135.56 1998.14,1131.86 1998.49,1131.71 2001.60,1130.25 2004.62,1137.95 2006.69,1141.49 2011.87,1150.43 2007.64,1153.01 2000.26,1140.17 1998.15,1136.54"/>
    <poly id="126001306" type="amenity" color="237,199,199" fill="1" layer="-1.00" shape="1196.56,1136.45 1202.60,1136.89 1202.95,1131.87 1201.95,1131.78 1202.25,1130.76 1202.99,1130.82 1203.07,1130.28 1203.85,1130.32 1203.85,1130.98 1208.90,1131.39 1209.03,1130.83 1209.89,1130.88 1209.81,1131.52 1216.10,1131.94 1216.23,1131.36 1217.05,1131.36 1217.10,1132.10 1221.07,1132.32 1221.46,1131.77 1222.36,1132.25 1221.97,1133.17 1223.40,1134.58 1224.09,1134.19 1224.48,1134.92 1223.57,1135.14 1223.48,1137.47 1224.09,1137.91 1223.65,1138.80 1223.14,1138.29 1221.63,1139.66 1222.75,1141.19 1223.48,1140.61 1224.00,1141.47 1222.96,1141.94 1222.84,1144.49 1223.79,1145.06 1223.53,1145.98 1222.62,1145.38 1220.38,1146.90 1220.98,1148.08 1221.71,1147.73 1222.28,1148.33 1221.42,1148.75 1221.37,1151.01 1222.41,1151.61 1222.06,1152.34 1221.41,1151.86 1219.82,1153.00 1220.12,1153.64 1219.73,1154.03 1219.00,1153.36 1218.61,1158.64 1200.66,1157.27 1201.09,1151.41 1200.01,1151.25 1200.35,1148.01 1195.69,1147.70 1196.56,1136.45"/>
    <poly id="126001306#1" type="building" color="255,230,230" fill="1" layer="-1.00" shape="1196.56,1136.45 1202.60,1136.89 1202.95,1131.87 1201.95,1131.78 1202.25,1130.76 1202.99,1130.82 1203.07,1130.28 1203.85,1130.32 1203.85,1130.98 1208.90,1131.39 1209.03,1130.83 1209.89,1130.88 1209.81,1131.52 1216.10,1131.94 1216.23,1131.36 1217.05,1131.36 1217.10,1132.10 1221.07,1132.32 1221.46,1131.77 1222.36,1132.25 1221.97,1133.17 1223.40,1134.58 1224.09,1134.19 1224.48,1134.92 1223.57,1135.14 1223.48,1137.47 1224.09,1137.91 1223.65,1138.80 1223.14,1138.29 1221.63,1139.66 1222.75,1141.19 1223.48,1140.61 1224.00,1141.47 1222.96,1141.94 1222.84,1144.49 1223.79,1145.06 1223.53,1145.98 1222.62,1145.38 1220.38,1146.90 1220.98,1148.08 1221.71,1147.73 1222.28,1148.33 1221.42,1148.75 1221.37,1151.01 1222.41,1151.61 1222.06,1152.34 1221.41,1151.86 1219.82,1153.00 1220.12,1153.64 1219.73,1154.03 1219.00,1153.36 1218.61,1158.64 1200.66,1157.27 1201.09,1151.41 1200.01,1151.25 1200.35,1148.01 1195.69,1147.70 1196.56,1136.45"/>
    <poly id="126001309" type="building" color="255,230,230" fill="1" layer="-1.00" shape="1673.62,1387.85 1676.25,1390.96 1682.86,1398.78 1675.90,1407.78 1672.58,1403.77 1671.77,1404.57 1670.60,1403.10 1671.42,1402.28 1668.70,1398.78 1671.20,1394.97 1669.00,1392.33 1673.62,1387.85"/>
    <poly id="126001315" type="building" color="255,230,230" fill="1" layer="-1.00" shape="1997.62,743.83 1985.72,754.93 1981.75,750.38 1988.26,744.31 1992.75,740.14 1994.18,741.67 1991.80,744.00 1992.75,745.01 1995.04,742.73 1995.90,743.52 1996.55,742.78 1997.62,743.83"/>
    <poly id="126001316" type="building" color="255,230,230" fill="1" layer="-1.00" shape="2085.31,881.54 2082.85,880.95 2085.05,876.65 2092.47,881.65 2097.13,884.57 2099.20,885.81 2099.02,886.18 2098.12,888.25 2098.08,888.35 2090.53,884.38 2090.61,884.19 2085.31,881.54"/>
    <poly id="126001317" type="building" color="255,230,230" fill="1" layer="-1.00" shape="1771.00,1281.51 1763.11,1273.86 1764.58,1272.00 1763.19,1270.98 1762.89,1269.39 1763.54,1268.60 1765.83,1270.37 1768.63,1266.82 1769.71,1265.58 1771.61,1267.33 1777.35,1273.05 1771.00,1281.51"/>
    <poly id="126001320" type="building" color="255,230,230" fill="1" layer="-1.00" shape="1601.78,1272.80 1598.75,1271.71 1587.06,1267.58 1587.96,1255.12 1598.35,1257.97 1598.24,1258.93 1598.15,1259.77 1595.90,1259.00 1595.13,1266.44 1598.88,1267.07 1603.33,1268.72 1601.78,1272.80"/>
    <poly id="126001321" type="building" color="255,230,230" fill="1" layer="-1.00" shape="1895.37,1023.17 1882.37,1018.38 1883.32,1015.83 1886.34,1015.54 1884.49,995.74 1888.37,995.33 1888.98,1000.64 1892.90,1000.32 1893.17,1002.35 1893.33,1002.32 1893.42,1003.19 1895.37,1023.17"/>
    <poly id="126001322" type="building" color="255,230,230" fill="1" layer="-1.00" shape="1495.24,748.06 1498.99,737.61 1507.80,740.97 1504.13,751.40 1503.82,751.31 1501.75,756.87 1494.20,778.04 1491.44,777.08 1493.82,770.50 1490.62,769.36 1498.04,749.11 1495.24,748.06"/>
    <poly id="126001324" type="building" color="255,230,230" fill="1" layer="-1.00" shape="2183.04,1230.36 2183.34,1231.58 2183.17,1231.63 2181.40,1232.12 2170.44,1234.68 2167.52,1228.37 2177.95,1226.74 2178.81,1230.46 2180.32,1230.24 2180.88,1230.43 2181.14,1231.01 2183.04,1230.36"/>
    <poly id="126001332" type="building" color="255,230,230" fill="1" layer="-1.00" shape="2079.87,886.70 2082.85,880.95 2085.31,881.54 2090.61,884.19 2090.53,884.38 2089.84,885.88 2095.57,889.52 2094.58,891.09 2093.85,894.13 2093.55,894.07 2091.05,893.50 2079.87,886.70"/>
    <poly id="126001342" type="building" color="255,230,230" fill="1" layer="-1.00" shape="1977.86,666.57 1985.33,662.28 1987.06,661.49 1998.23,674.07 2002.46,670.32 2027.36,698.01 2019.67,705.13 1994.61,677.32 1990.59,681.00 1977.86,666.57"/>
    <poly id="126001349" type="building" color="255,230,230" fill="1" layer="-1.00" shape="1977.18,1196.01 1973.25,1197.91 1969.79,1199.69 1963.45,1184.24 1974.07,1178.81 1978.47,1187.18 1975.71,1188.50 1975.53,1188.09 1973.51,1189.08 1975.83,1194.48 1976.31,1194.23 1977.18,1196.01"/>
    <poly id="126001353" type="building" color="255,230,230" fill="1" layer="-1.00" shape="2131.82,1210.72 2136.79,1201.34 2140.32,1205.16 2134.15,1216.47 2133.55,1216.03 2133.03,1216.98 2132.08,1216.16 2132.51,1215.37 2133.07,1214.16 2132.85,1213.17 2133.76,1211.36 2131.82,1210.72"/>
    <poly id="126001354" type="building" color="255,230,230" fill="1" layer="-1.00" shape="1594.70,659.20 1597.68,654.37 1598.84,651.25 1604.97,655.01 1604.88,655.16 1607.08,656.52 1605.53,659.58 1605.01,660.56 1603.94,662.56 1601.95,661.32 1600.87,663.11 1594.70,659.20"/>
    <poly id="126001358" type="building" color="255,230,230" fill="1" layer="-1.00" shape="1755.04,961.10 1754.69,960.97 1751.25,969.81 1742.79,966.63 1741.75,963.89 1752.02,944.67 1756.59,947.12 1756.08,948.16 1754.91,950.40 1756.51,951.24 1759.44,952.87 1755.04,961.10"/>
    <poly id="126001359" type="building" color="255,230,230" fill="1" layer="-1.00" shape="1320.53,1082.55 1320.96,1078.90 1321.99,1070.30 1343.25,1068.60 1344.09,1077.30 1342.95,1083.40 1342.75,1084.55 1339.82,1084.57 1339.69,1085.53 1322.42,1085.53 1322.42,1082.57 1320.53,1082.55"/>