<?xml version="1.0"?>
<!-- generated on 2017-03-06 17:00:48.811837 by $Id: randomTrips.py 19495 2015-12-02 12:36:28Z behrisch $
  options: -n map.net.xml -r map.rou.xml -e 100 -l
-->
<trips>
    <trip id="0" depart="0.00" from="-322189990#0" to="158700232#2" />
    <trip id="1" depart="1.00" from="69816437#2" to="219120864#0" />
    <trip id="2" depart="2.00" from="206270145" to="126592154#2" />
    <trip id="3" depart="3.00" from="35134824#3" to="259670571#1" />
    <trip id="4" depart="4.00" from="-326743654#4" to="-378042496" />
    <trip id="5" depart="5.00" from="-427194477#2" to="362836315#0" />
    <trip id="6" depart="6.00" from="238859302#1" to="31306939#0" />
    <trip id="7" depart="7.00" from="35102446#0" to="31306936" />
    <trip id="8" depart="8.00" from="153785248" to="33051418" />
    <trip id="9" depart="9.00" from="35102446#0" to="31369760" />
    <trip id="10" depart="10.00" from="414312641" to="158700232#2" />
    <trip id="11" depart="11.00" from="31367163#2" to="436083371" />
    <trip id="12" depart="12.00" from="163827580#1" to="427186925" />
    <trip id="13" depart="13.00" from="69800784#0" to="33049034#0" />
    <trip id="14" depart="14.00" from="206272084#0" to="378042499" />
    <trip id="15" depart="15.00" from="-131338579#1" to="35134824#0" />
    <trip id="16" depart="16.00" from="31367166#1" to="436083375" />
    <trip id="17" depart="17.00" from="-31367163#2" to="32679839" />
    <trip id="18" depart="18.00" from="32668048#1" to="131424812#0" />
    <trip id="19" depart="19.00" from="206270143#0" to="206272084#1" />
    <trip id="20" depart="20.00" from="219117541" to="31367154" />
    <trip id="21" depart="21.00" from="267392119" to="31368077#0" />
    <trip id="22" depart="22.00" from="31306936" to="206270157#1" />
    <trip id="23" depart="23.00" from="259670583#0" to="-196496906#1" />
    <trip id="24" depart="24.00" from="31308003#1" to="206270149#2" />
    <trip id="25" depart="25.00" from="206270154#1" to="326743654#1" />
    <trip id="26" depart="26.00" from="206272075" to="30620183#2" />
    <trip id="27" depart="27.00" from="-427358067#1" to="33051425" />
    <trip id="28" depart="28.00" from="69816449#2" to="-35102446#0" />
    <trip id="29" depart="29.00" from="206272084#0" to="436083351" />
    <trip id="30" depart="30.00" from="33051406#0" to="206273873#2" />
    <trip id="31" depart="31.00" from="163827568" to="436083350" />
    <trip id="32" depart="32.00" from="-164482381#2" to="33051418" />
    <trip id="33" depart="33.00" from="69805695#0" to="-31364653#0" />
    <trip id="34" depart="34.00" from="206270154#1" to="-69805695#2" />
    <trip id="35" depart="35.00" from="30620183#3" to="427194481" />
    <trip id="36" depart="36.00" from="32668048#1" to="130536359" />
    <trip id="37" depart="37.00" from="33049043#1" to="406746893" />
    <trip id="38" depart="38.00" from="267385850#1" to="-374070424#0" />
    <trip id="39" depart="39.00" from="163824001#0" to="130533958" />
    <trip id="40" depart="40.00" from="206272091#3" to="-31368079" />
    <trip id="41" depart="41.00" from="32798948" to="126592155" />
    <trip id="42" depart="42.00" from="-31294078#2" to="-362819433#0" />
    <trip id="43" depart="43.00" from="151552745#0" to="69805699" />
    <trip id="44" depart="44.00" from="-289984889#1" to="219120862#0" />
    <trip id="45" depart="45.00" from="-130518599" to="206270154#1" />
    <trip id="46" depart="46.00" from="130533957" to="-35102446#0" />
    <trip id="47" depart="47.00" from="-289984889#1" to="206272090#0" />
    <trip id="48" depart="48.00" from="408882047" to="259670574" />
    <trip id="49" depart="49.00" from="35134824#1" to="31293293#5" />
    <trip id="50" depart="50.00" from="206272084#2" to="-326743654#1" />
    <trip id="51" depart="51.00" from="427358067#1" to="427358067#0" />
    <trip id="52" depart="52.00" from="219119623#3" to="-427358067#1" />
    <trip id="53" depart="53.00" from="-30724863#1" to="31368077#0" />
    <trip id="54" depart="54.00" from="341176440" to="31293293#5" />
    <trip id="55" depart="55.00" from="206270152" to="168522951" />
    <trip id="56" depart="56.00" from="310398775#1" to="206270145" />
    <trip id="57" depart="57.00" from="199051810#0" to="206272095#1" />
    <trip id="58" depart="58.00" from="206272090#0" to="406718401#0" />
    <trip id="59" depart="59.00" from="31308003#0" to="406718399#2" />
    <trip id="60" depart="60.00" from="414312641" to="436083362#1" />
    <trip id="61" depart="61.00" from="267417345#1" to="31291526#1" />
    <trip id="62" depart="62.00" from="413713507" to="31364632" />
    <trip id="63" depart="63.00" from="30724865" to="206272081" />
    <trip id="64" depart="64.00" from="206272084#0" to="31293293#5" />
    <trip id="65" depart="65.00" from="-33049034#1" to="130533957" />
    <trip id="66" depart="66.00" from="267390781#1" to="206270153#2" />
    <trip id="67" depart="67.00" from="199051810#0" to="206270157#0" />
    <trip id="68" depart="68.00" from="30620184#0" to="-219120862#0" />
    <trip id="69" depart="69.00" from="249307662#0" to="427347650" />
    <trip id="70" depart="70.00" from="199051810#0" to="131338576" />
    <trip id="71" depart="71.00" from="206272088#0" to="31367159#2" />
    <trip id="72" depart="72.00" from="31369764" to="30620183#2" />
    <trip id="73" depart="73.00" from="31364653#1" to="31367153" />
    <trip id="74" depart="74.00" from="-69805695#2" to="406718399#2" />
    <trip id="75" depart="75.00" from="-165024900" to="24417327" />
    <trip id="76" depart="76.00" from="-33051425" to="206272076#3" />
    <trip id="77" depart="77.00" from="206270145" to="310398775#1" />
    <trip id="78" depart="78.00" from="206272075" to="30724863#0" />
    <trip id="79" depart="79.00" from="362836315#4" to="-30334315#3" />
    <trip id="80" depart="80.00" from="31368077#0" to="33051406#1" />
    <trip id="81" depart="81.00" from="267391419" to="-69805695#2" />
    <trip id="82" depart="82.00" from="69816449#2" to="-395874580#0" />
    <trip id="83" depart="83.00" from="206270145" to="206272091#0" />
    <trip id="84" depart="84.00" from="-31293293#5" to="31306933#1" />
    <trip id="85" depart="85.00" from="-31293293#5" to="30334312#1" />
    <trip id="86" depart="86.00" from="290031978" to="35134824#0" />
    <trip id="87" depart="87.00" from="131338578" to="-31306364#0" />
    <trip id="88" depart="88.00" from="-378218997" to="-31364653#0" />
    <trip id="89" depart="89.00" from="-378042494#4" to="206272093#2" />
    <trip id="90" depart="90.00" from="33051428#2" to="30724863#1" />
    <trip id="91" depart="91.00" from="31305877#0" to="-31293289#3" />
    <trip id="92" depart="92.00" from="-131338579#1" to="238859294#2" />
    <trip id="93" depart="93.00" from="206272088#0" to="31294078#2" />
    <trip id="94" depart="94.00" from="30620180#1" to="31367162#2" />
    <trip id="95" depart="95.00" from="436083371" to="362837792" />
    <trip id="96" depart="96.00" from="199051810#0" to="35134824#0" />
    <trip id="97" depart="97.00" from="-31367159#3" to="30620180#1" />
    <trip id="98" depart="98.00" from="33051406#0" to="249307658" />
    <trip id="99" depart="99.00" from="289986269#0" to="436083371" />
</trips>
