<?xml version="1.0" encoding="UTF-8"?>

<!-- generated on Mon Nov 25 13:10:37 2013 by SUMO polyconvert Version 0.15.0
<?xml version="1.0" encoding="UTF-8"?>

<configuration xmlns:xsi="http://www.w3.org/2001/XMLSchema-instance" xsi:noNamespaceSchemaLocation="http://sumo.sf.net/xsd/polyconvertConfiguration.xsd">

    <input>
        <net-file value="malaga.net.xml"/>
        <osm-files value="polygons.osm"/>
        <osm.keep-full-type value="true"/>
        <osm.use-name value="true"/>
        <type-file value="typemap.xml"/>
    </input>

    <output>
        <output-file value="malaga.poly.xml"/>
    </output>

    <projection>
        <proj value="+proj=utm +zone=30 +ellps=WGS84 +datum=WGS84 +units=m +no_defs"/>
    </projection>

    <processing>
        <offset.x value="-372526"/>
        <offset.y value="-4.06364e+06"/>
    </processing>

</configuration>
-->

<additional xmlns:xsi="http://www.w3.org/2001/XMLSchema-instance" xsi:noNamespaceSchemaLocation="http://sumo-sim.org/xsd/additional_file.xsd">
   <poly id="-26935" type="boundary.civil" color="1.00,0.00,0.00" fill="0" layer="1" shape="327.25,351.39 315.13,338.96 291.46,335.39 272.11,348.49 266.53,370.13 280.49,393.50 298.12,399.12 315.71,394.37 325.66,384.90 330.22,374.74 331.15,364.97 327.25,351.39"/>
    <poly id="-26937" type="boundary.civil" color="1.00,0.00,0.00" fill="0" layer="1" shape="316.84,357.31 309.20,349.48 294.28,347.23 282.08,355.48 278.55,369.13 287.36,383.87 298.47,387.41 309.57,384.42 315.84,378.44 318.71,372.04 319.30,365.88 316.84,357.31"/>
    <poly id="-26939" type="boundary.civil" color="1.00,0.00,0.00" fill="0" layer="1" shape="710.11,826.05 697.99,813.62 674.33,810.05 654.98,823.15 649.39,844.79 663.35,868.16 680.98,873.78 698.57,869.03 708.52,859.55 713.08,849.40 714.01,839.63 710.11,826.05"/>
    <poly id="-26941" type="boundary.civil" color="1.00,0.00,0.00" fill="0" layer="1" shape="699.70,831.97 692.06,824.14 677.14,821.89 664.94,830.14 661.42,843.79 670.22,858.52 681.33,862.06 692.43,859.07 698.70,853.10 701.57,846.70 702.16,840.54 699.70,831.97"/>
    <poly id="-26945" type="boundary.civil" color="1.00,0.00,0.00" fill="0" layer="1" shape="695.78,921.13 688.13,913.29 673.22,911.05 661.02,919.30 657.49,932.94 666.30,947.68 677.41,951.22 688.50,948.23 694.77,942.26 697.65,935.85 698.24,929.69 695.78,921.13"/>
    <poly id="-26947" type="boundary.civil" color="1.00,0.00,0.00" fill="0" layer="1" shape="706.19,915.21 694.06,902.78 670.40,899.21 651.05,912.30 645.47,933.94 659.43,957.31 677.05,962.93 694.65,958.19 704.59,948.71 709.15,938.56 710.09,928.79 706.19,915.21"/>
    <poly id="-26951" type="boundary.civil" color="1.00,0.00,0.00" fill="0" layer="1" shape="312.16,888.08 304.51,880.25 289.59,878.00 277.39,886.26 273.87,899.90 282.68,914.64 293.79,918.18 304.88,915.19 311.15,909.21 314.03,902.81 314.61,896.65 312.16,888.08"/>
    <poly id="-26953" type="boundary.civil" color="1.00,0.00,0.00" fill="0" layer="1" shape="322.56,882.16 310.44,869.73 286.78,866.17 267.43,879.26 261.84,900.90 275.81,924.27 293.43,929.89 311.03,925.14 320.97,915.67 325.53,905.51 326.46,895.74 322.56,882.16"/>
    <poly id="-26957" type="boundary.civil" color="1.00,0.00,0.00" fill="0" layer="1" shape="212.02,764.68 204.38,756.85 189.46,754.60 177.26,762.86 173.74,776.50 182.54,791.24 193.65,794.78 204.75,791.79 211.02,785.81 213.89,779.41 214.48,773.25 212.02,764.68"/>
    <poly id="-26959" type="boundary.civil" color="1.00,0.00,0.00" fill="0" layer="1" shape="222.43,758.76 210.31,746.33 186.64,742.77 167.29,755.86 161.71,777.50 175.68,800.87 193.30,806.49 210.89,801.74 220.84,792.27 225.40,782.11 226.33,772.34 222.43,758.76"/>
    <poly id="-26963" type="boundary.civil" color="1.00,0.00,0.00" fill="0" layer="1" shape="1387.35,1062.44 1379.71,1054.60 1364.79,1052.35 1352.59,1060.60 1349.07,1074.25 1357.87,1088.98 1368.98,1092.53 1380.07,1089.54 1386.35,1083.56 1389.22,1077.16 1389.81,1071.00 1387.35,1062.44"/>
    <poly id="-26965" type="boundary.civil" color="1.00,0.00,0.00" fill="0" layer="1" shape="1397.76,1056.51 1385.64,1044.08 1361.98,1040.52 1342.63,1053.61 1337.04,1075.25 1351.00,1098.62 1368.62,1104.24 1386.22,1099.50 1396.16,1090.02 1400.72,1079.87 1401.66,1070.09 1397.76,1056.51"/>
    <poly id="-26969" type="boundary.civil" color="1.00,0.00,0.00" fill="0" layer="1" shape="1345.06,1207.52 1337.42,1199.68 1322.50,1197.43 1310.30,1205.69 1306.78,1219.33 1315.58,1234.07 1326.69,1237.61 1337.78,1234.62 1344.06,1228.64 1346.93,1222.24 1347.52,1216.08 1345.06,1207.52"/>
    <poly id="-26971" type="boundary.civil" color="1.00,0.00,0.00" fill="0" layer="1" shape="1355.47,1201.59 1343.35,1189.17 1319.69,1185.60 1300.34,1198.69 1294.75,1220.33 1308.71,1243.70 1326.33,1249.32 1343.93,1244.58 1353.87,1235.10 1358.43,1224.95 1359.37,1215.18 1355.47,1201.59"/>
    <poly id="-26975" type="boundary.civil" color="1.00,0.00,0.00" fill="0" layer="1" shape="1812.34,1193.20 1804.69,1185.37 1789.78,1183.12 1777.57,1191.37 1774.05,1205.01 1782.85,1219.75 1793.96,1223.29 1805.06,1220.30 1811.33,1214.33 1814.20,1207.93 1814.79,1201.77 1812.34,1193.20"/>
    <poly id="-26977" type="boundary.civil" color="1.00,0.00,0.00" fill="0" layer="1" shape="1822.74,1187.28 1810.62,1174.85 1786.96,1171.28 1767.61,1184.37 1762.02,1206.01 1775.98,1229.38 1793.61,1235.00 1811.20,1230.26 1821.15,1220.79 1825.71,1210.64 1826.64,1200.86 1822.74,1187.28"/>
    <poly id="-26981" type="boundary.civil" color="1.00,0.00,0.00" fill="0" layer="1" shape="2008.81,1105.37 2001.17,1097.53 1986.25,1095.28 1974.05,1103.53 1970.53,1117.18 1979.33,1131.91 1990.44,1135.46 2001.53,1132.47 2007.81,1126.49 2010.68,1120.09 2011.27,1113.93 2008.81,1105.37"/>
    <poly id="-26983" type="boundary.civil" color="1.00,0.00,0.00" fill="0" layer="1" shape="2019.22,1099.45 2007.10,1087.02 1983.44,1083.45 1964.09,1096.54 1958.50,1118.17 1972.46,1141.55 1990.08,1147.17 2007.68,1142.43 2017.63,1132.95 2022.19,1122.80 2023.12,1113.03 2019.22,1099.45"/>
    <poly id="-26987" type="boundary.civil" color="1.00,0.00,0.00" fill="0" layer="1" shape="221.25,1212.74 213.61,1204.90 198.69,1202.66 186.49,1210.91 182.97,1224.56 191.78,1239.29 202.89,1242.83 213.98,1239.84 220.25,1233.87 223.13,1227.46 223.71,1221.30 221.25,1212.74"/>
    <poly id="-26989" type="boundary.civil" color="1.00,0.00,0.00" fill="0" layer="1" shape="231.66,1206.82 219.54,1194.39 195.88,1190.82 176.53,1203.92 170.94,1225.56 184.91,1248.93 202.53,1254.54 220.12,1249.80 230.07,1240.32 234.63,1230.17 235.56,1220.40 231.66,1206.82"/>
    <poly id="01.01" type="boundary.civil" color="1.00,0.00,0.00" fill="0" layer="1" shape="340.79,343.82 322.88,325.46 287.92,320.19 259.33,339.53 251.08,371.51 271.71,406.04 297.75,414.34 323.74,407.33 338.44,393.33 345.18,378.33 346.55,363.88 340.79,343.82"/>
    <poly id="01.02" type="boundary.civil" color="1.00,0.00,0.00" fill="0" layer="1" shape="723.65,818.48 705.74,800.12 670.79,794.85 642.20,814.19 633.94,846.16 654.57,880.69 680.61,888.99 706.60,881.99 721.30,867.98 728.04,852.99 729.41,838.55 723.65,818.48"/>
    <poly id="01.03" type="boundary.civil" color="1.00,0.00,0.00" fill="0" layer="1" shape="235.97,751.19 218.06,732.83 183.10,727.56 154.51,746.91 146.26,778.88 166.90,813.41 192.93,821.71 218.93,814.70 233.62,800.69 240.36,785.70 241.73,771.26 235.97,751.19"/>
    <poly id="01.04" type="boundary.civil" color="1.00,0.00,0.00" fill="0" layer="1" shape="1369.01,1194.03 1351.10,1175.67 1316.15,1170.40 1287.56,1189.74 1279.30,1221.70 1299.93,1256.24 1325.97,1264.54 1351.96,1257.53 1366.65,1243.53 1373.39,1228.53 1374.77,1214.09 1369.01,1194.03"/>
    <poly id="01.05" type="boundary.civil" color="1.00,0.00,0.00" fill="0" layer="1" shape="1411.30,1048.95 1393.39,1030.59 1358.44,1025.31 1329.85,1044.65 1321.59,1076.62 1342.22,1111.15 1368.26,1119.46 1394.25,1112.45 1408.95,1098.45 1415.68,1083.45 1417.06,1069.01 1411.30,1048.95"/>
    <poly id="01.06" type="boundary.civil" color="1.00,0.00,0.00" fill="0" layer="1" shape="719.73,907.64 701.82,889.28 666.86,884.01 638.27,903.35 630.02,935.32 650.65,969.85 676.69,978.15 702.68,971.14 717.37,957.14 724.11,942.14 725.49,927.70 719.73,907.64"/>
    <poly id="01.07" type="boundary.civil" color="1.00,0.00,0.00" fill="0" layer="1" shape="1836.29,1179.72 1818.38,1161.35 1783.42,1156.08 1754.83,1175.42 1746.58,1207.39 1767.20,1241.92 1793.24,1250.22 1819.23,1243.22 1833.93,1229.22 1840.66,1214.22 1842.04,1199.78 1836.29,1179.72"/>
    <poly id="01.08" type="boundary.civil" color="1.00,0.00,0.00" fill="0" layer="1" shape="2032.77,1091.88 2014.86,1073.52 1979.90,1068.24 1951.31,1087.58 1943.06,1119.55 1963.68,1154.08 1989.71,1162.39 2015.71,1155.38 2030.41,1141.38 2037.14,1126.39 2038.52,1111.95 2032.77,1091.88"/>
    <poly id="01.09" type="boundary.civil" color="1.00,0.00,0.00" fill="0" layer="1" shape="336.11,874.59 318.19,856.23 283.24,850.96 254.65,870.31 246.40,902.28 267.03,936.81 293.07,945.11 319.06,938.10 333.75,924.09 340.49,909.10 341.87,894.66 336.11,874.59"/>
    <poly id="01.10" type="boundary.civil" color="1.00,0.00,0.00" fill="0" layer="1" shape="245.20,1199.25 227.29,1180.89 192.34,1175.62 163.75,1194.97 155.50,1226.94 176.13,1261.46 202.17,1269.76 228.16,1262.75 242.85,1248.75 249.59,1233.75 250.96,1219.31 245.20,1199.25"/>
    <poly id="Guadalmedina" type="waterway.river" color="0.71,0.82,0.82" fill="0" layer="-10" shape="139.38,1689.95 152.36,1516.35 179.11,1187.23 178.99,1127.52 172.27,1069.62 165.84,1031.96 154.43,994.92 134.20,921.36 128.72,854.26 123.98,784.80 120.73,717.62 117.50,664.49 115.43,612.75 113.62,559.70 113.40,507.22 112.48,405.96 107.60,1.46"/>
</additional>
