<?xml version="1.0" encoding="UTF-8"?>
<additional xmlns:xsi="http://www.w3.org/2001/XMLSchema-instance" 
 xsi:noNamespaceSchemaLocation="http://sumo-sim.org/xsd/additional_file.xsd">

	<!-- Pedrestians - automatic - 4 lanes -->
   <tlLogic id="419641424" type="static" programID="01.A4" offset="0">
        <phase duration="60" state="GGGG"/>
        <phase duration="4" state="yyyy"/>
        <phase duration="30" state="rrrr"/>
	</tlLogic>

	<!-- Pedrestians - automatic - 2 lanes -->
   <tlLogic id="419640944" type="static" programID="01.A2" offset="0">
        <phase duration="60" state="GG"/>
        <phase duration="4" state="yy"/>
        <phase duration="30" state="rr"/>
	</tlLogic>
   <tlLogic id="419641199" type="static" programID="01.A2" offset="0">
        <phase duration="60" state="GG"/>
        <phase duration="4" state="yy"/>
        <phase duration="30" state="rr"/>
	</tlLogic>
   <tlLogic id="549226082" type="static" programID="01.A2" offset="0">
        <phase duration="60" state="GG"/>
        <phase duration="4" state="yy"/>
        <phase duration="30" state="rr"/>
	</tlLogic>
   <tlLogic id="418986725" type="static" programID="01.A2" offset="0">
        <phase duration="60" state="GG"/>
        <phase duration="4" state="yy"/>
        <phase duration="30" state="rr"/>
	</tlLogic>
   <tlLogic id="577406877" type="static" programID="01.A2" offset="0">
        <phase duration="60" state="GG"/>
        <phase duration="4" state="yy"/>
        <phase duration="30" state="rr"/>
	</tlLogic>
<!--   <tlLogic id="100418" type="static" programID="01.A2" offset="0">
        <phase duration="30" state="GG"/>
        <phase duration="4" state="yy"/>
        <phase duration="30" state="rr"/>
    </tlLogic>
   <tlLogic id="100404" type="static" programID="01.A2" offset="0">
        <phase duration="30" state="GG"/>
        <phase duration="4" state="yy"/>
        <phase duration="30" state="rr"/>
        </tlLogic>

   <tlLogic id="100424" type="static" programID="01.A4" offset="0">
        <phase duration="600" state="GGGG"/>
        <phase duration="4" state="yyyy"/>
        <phase duration="30" state="rrrr"/>
    </tlLogic>     -->

	<!-- Pedrestians - manual - 2 lanes -->
   <tlLogic id="1001824" type="static" programID="01.M2" offset="0">
        <phase duration="600" state="GG"/>
        <phase duration="4" state="yy"/>
        <phase duration="30" state="rr"/>
	</tlLogic>
   <tlLogic id="1001822" type="static" programID="01.M2" offset="0">
        <phase duration="600" state="GG"/>
        <phase duration="4" state="yy"/>
        <phase duration="30" state="rr"/>
	</tlLogic>
   <tlLogic id="1001820" type="static" programID="01.M2" offset="0">
        <phase duration="600" state="GG"/>
        <phase duration="4" state="yy"/>
        <phase duration="30" state="rr"/>
	</tlLogic>
   <tlLogic id="1001818" type="static" programID="01.M2" offset="0">
        <phase duration="600" state="GG"/>
        <phase duration="4" state="yy"/>
        <phase duration="30" state="rr"/>
	</tlLogic>
   <tlLogic id="1001814" type="static" programID="01.M2" offset="0">
        <phase duration="600" state="GG"/>
        <phase duration="4" state="yy"/>
        <phase duration="30" state="rr"/>
	</tlLogic>
   <tlLogic id="1001816" type="static" programID="01.M2" offset="0">
        <phase duration="600" state="GG"/>
        <phase duration="4" state="yy"/>
        <phase duration="30" state="rr"/>
	</tlLogic>
   <tlLogic id="549225993" type="static" programID="01.M2" offset="0">
        <phase duration="600" state="GG"/>
        <phase duration="4" state="yy"/>
        <phase duration="30" state="rr"/>
	</tlLogic>
   <tlLogic id="549226011" type="static" programID="01.M2" offset="0">
        <phase duration="600" state="GG"/>
        <phase duration="4" state="yy"/>
        <phase duration="30" state="rr"/>
	</tlLogic>
<!--    <tlLogic id="100113836" type="static" programID="01.M2" offset="0">
        <phase duration="600" state="GG"/>
        <phase duration="4" state="yy"/>
        <phase duration="30" state="rr"/>
    </tlLogic>
    <tlLogic id="100113834" type="static" programID="01.M2" offset="0">
        <phase duration="600" state="GG"/>
        <phase duration="4" state="yy"/>
        <phase duration="30" state="rr"/>
    </tlLogic>-->

<!-- Pedrestians - manual - 1 lane -->
<!--   <tlLogic id="100113873" type="static" programID="01.M1" offset="0">
        <phase duration="600" state="G"/>
        <phase duration="4" state="y"/>
        <phase duration="30" state="r"/>
    </tlLogic>  -->


	<!-- Cross - 2 lanes -->
   <tlLogic id="303275184" type="static" programID="01.X2" offset="0">
        <phase duration="30" state="GG"/>
        <phase duration="4" state="yy"/>
        <phase duration="30" state="rr"/>
	</tlLogic>

	<!-- Cross - 4 lanes -->
   <tlLogic id="302890008" type="static" programID="01.X4" offset="0">
        <phase duration="30" state="GGGG"/>
        <phase duration="4" state="yyyy"/>
        <phase duration="30" state="rrrr"/>
	</tlLogic>



   <!-- specially made -->
<!--   <tlLogic id="303278502" type="static" programID="1" offset="0">
      <phase duration="31" state="rrGGG"/>
      <phase duration="3" state="rryyy"/>
      <phase duration="31" state="GGGrr"/>
      <phase duration="3" state="yyyrr"/>
   </tlLogic>-->
   <tlLogic id="331525908" type="static" programID="1" offset="0">
      <phase duration="31" state="GGGGG"/>
      <phase duration="3" state="yyyyy"/>
      <phase duration="31" state="rrrrr"/>
      <phase duration="3" state="yyyyy"/>
   </tlLogic>
   <tlLogic id="419630409" type="static" programID="1" offset="0">
      <phase duration="31" state="rrrrGGGG"/>
      <phase duration="3" state="rrrryyyy"/>
      <phase duration="31" state="GGGGrrrr"/>
      <phase duration="4" state="yyyyrrrr"/>
   </tlLogic>
   <tlLogic id="419641406" type="static" programID="1" offset="0">
      <phase duration="31" state="rrrGG"/>
      <phase duration="4" state="rrryy"/>
      <phase duration="31" state="GGGrr"/>
      <phase duration="4" state="yyyrr"/>
   </tlLogic>
   <tlLogic id="891445901" type="static" programID="1" offset="0">
      <phase duration="31" state="rrrGG"/>
      <phase duration="4" state="rrryy"/>
      <phase duration="31" state="GGGrr"/>
      <phase duration="4" state="yyyrr"/>
   </tlLogic>

   <tlLogic id="418221294" type="static" programID="1" offset="0">
      <phase duration="61" state="GGrrrGGG"/>
      <phase duration="4"  state="yygrryyy"/>
      <phase duration="30"  state="rrGrrrrr"/>
      <phase duration="4"  state="rryrrrrr"/>
      <phase duration="31" state="rrrGGGrr"/>
      <phase duration="4"  state="rrryyyrr"/>
   </tlLogic>
   <tlLogic id="1777568746" type="static" programID="1" offset="0">
      <phase duration="61" state="GGrrGG"/>
      <phase duration="4"  state="yyrryy"/>
      <phase duration="30" state="rrGGrr"/>
      <phase duration="4"  state="rryyrr"/>
      <phase duration="35" state="GGrrGG"/>
   </tlLogic>

   <tlLogic id="10027131" type="static" programID="1" offset="0">
      <phase duration="31" state="GG"/>
      <phase duration="3" state="yy"/>
      <phase duration="34" state="rr"/>
   </tlLogic>

   <tlLogic id="294035851" type="static" programID="1" offset="0">
      <phase duration="31" state="rGG"/>
      <phase duration="4" state="ryy"/>
      <phase duration="31" state="Grr"/>
      <phase duration="4" state="yrr"/>
   </tlLogic>
   <tlLogic id="418976374" type="static" programID="1" offset="0">
      <phase duration="31" state="gGG"/>
      <phase duration="4" state="yyy"/>
      <phase duration="35" state="rrr"/>
   </tlLogic>

   <tlLogic id="767455134" type="static" programID="1" offset="0">
      <phase duration="31" state="GGGrrrrGGr"/>
      <phase duration="4"  state="yyyrrrryyr"/>
      <phase duration="31" state="rrrGGGGrrr"/>
      <phase duration="4"  state="rrryyyyrrr"/>
      <phase duration="31" state="GrrrrrrGGG"/>
      <phase duration="4"  state="GrrrrrrGGy"/>
   </tlLogic>
   <tlLogic id="419665949" type="static" programID="1" offset="0">
      <phase duration="31" state="rrGG"/>
      <phase duration="4" state="rryy"/>
      <phase duration="31" state="GGrr"/>
      <phase duration="4" state="yyrr"/>
   </tlLogic>

</additional>
