<?xml version="1.0" encoding="UTF-8"?>

<!-- generated on Mon Dec 30 21:52:17 2013 by SUMO polyconvert Version 0.15.0
<?xml version="1.0" encoding="UTF-8"?>

<configuration xmlns:xsi="http://www.w3.org/2001/XMLSchema-instance" xsi:noNamespaceSchemaLocation="http://sumo.sf.net/xsd/polyconvertConfiguration.xsd">

    <input>
        <net-file value="paris.net.xml"/>
        <osm-files value="polygons.osm"/>
        <osm.keep-full-type value="true"/>
        <osm.use-name value="true"/>
        <type-file value="typemap.xml"/>
    </input>

    <output>
        <output-file value="paris.poly.xml"/>
    </output>

    <projection>
        <proj value="+proj=utm +zone=31 +ellps=WGS84 +datum=WGS84 +units=m +no_defs"/>
    </projection>

    <processing>
        <offset.x value="-447143"/>
        <offset.y value="-5.41268e+06"/>
    </processing>

</configuration>
-->

<additional xmlns:xsi="http://www.w3.org/2001/XMLSchema-instance" xsi:noNamespaceSchemaLocation="http://sumo-sim.org/xsd/additional_file.xsd">
    <poly id="-134625" type="boundary.civil" color="1.00,0.00,0.00" fill="0" layer="1" shape="409.18,862.85 403.44,856.89 392.17,855.12 382.91,861.32 380.19,871.64 386.79,882.83 395.17,885.55 403.57,883.34 408.34,878.84 410.54,874.01 411.01,869.34 409.18,862.85"/>
    <poly id="-134627" type="boundary.civil" color="1.00,0.00,0.00" fill="0" layer="1" shape="419.71,857.04 409.50,846.44 389.48,843.31 373.03,854.32 368.20,872.65 379.92,892.54 394.82,897.39 409.74,893.44 418.21,885.45 422.12,876.86 422.95,868.58 419.71,857.04"/>
    <poly id="-134631" type="boundary.civil" color="1.00,0.00,0.00" fill="0" layer="1" shape="607.12,1258.92 601.38,1252.95 590.11,1251.19 580.85,1257.39 578.14,1267.70 584.73,1278.89 593.11,1281.62 601.51,1279.40 606.28,1274.90 608.47,1270.07 608.94,1265.41 607.12,1258.92"/>
    <poly id="-134633" type="boundary.civil" color="1.00,0.00,0.00" fill="0" layer="1" shape="617.65,1253.10 607.44,1242.51 587.42,1239.37 570.97,1250.39 566.14,1268.71 577.86,1288.60 592.76,1293.45 607.68,1289.50 616.15,1281.51 620.05,1272.92 620.89,1264.64 617.65,1253.10"/>
    <poly id="-134637" type="boundary.civil" color="1.00,0.00,0.00" fill="0" layer="1" shape="722.81,695.16 717.07,689.20 705.80,687.43 696.54,693.63 693.82,703.95 700.42,715.14 708.80,717.86 717.20,715.65 721.97,711.15 724.17,706.32 724.64,701.65 722.81,695.16"/>
    <poly id="-134639" type="boundary.civil" color="1.00,0.00,0.00" fill="0" layer="1" shape="733.34,689.35 723.13,678.75 703.11,675.62 686.66,686.63 681.83,704.96 693.55,724.85 708.45,729.70 723.37,725.75 731.84,717.76 735.75,709.17 736.58,700.89 733.34,689.35"/>
    <poly id="-134643" type="boundary.civil" color="1.00,0.00,0.00" fill="0" layer="1" shape="1206.62,290.02 1200.87,284.06 1189.60,282.29 1180.35,288.49 1177.63,298.80 1184.22,310.00 1192.61,312.72 1201.00,310.51 1205.77,306.01 1207.97,301.18 1208.44,296.51 1206.62,290.02"/>
    <poly id="-134645" type="boundary.civil" color="1.00,0.00,0.00" fill="0" layer="1" shape="1217.15,284.21 1206.94,273.61 1186.91,270.47 1170.46,281.49 1165.63,299.82 1177.35,319.71 1192.25,324.56 1207.17,320.61 1215.64,312.62 1219.55,304.03 1220.39,295.75 1217.15,284.21"/>
    <poly id="-134649" type="boundary.civil" color="1.00,0.00,0.00" fill="0" layer="1" shape="1408.58,521.40 1402.83,515.43 1391.56,513.67 1382.30,519.86 1379.59,530.18 1386.18,541.37 1394.56,544.10 1402.96,541.88 1407.73,537.38 1409.93,532.55 1410.40,527.89 1408.58,521.40"/>
    <poly id="-134651" type="boundary.civil" color="1.00,0.00,0.00" fill="0" layer="1" shape="1419.11,515.59 1408.90,504.99 1388.87,501.85 1372.42,512.86 1367.59,531.19 1379.30,551.08 1394.20,555.93 1409.13,551.99 1417.60,544.00 1421.51,535.41 1422.34,527.12 1419.11,515.59"/>
    <poly id="-134655" type="boundary.civil" color="1.00,0.00,0.00" fill="0" layer="1" shape="1479.54,272.25 1473.79,266.28 1462.52,264.52 1453.26,270.71 1450.54,281.03 1457.14,292.22 1465.52,294.95 1473.92,292.73 1478.69,288.23 1480.89,283.40 1481.36,278.74 1479.54,272.25"/>
    <poly id="-134657" type="boundary.civil" color="1.00,0.00,0.00" fill="0" layer="1" shape="1490.07,266.44 1479.86,255.84 1459.83,252.70 1443.38,263.71 1438.55,282.04 1450.26,301.93 1465.16,306.78 1480.09,302.84 1488.56,294.85 1492.47,286.26 1493.31,277.97 1490.07,266.44"/>
    <poly id="-134661" type="boundary.civil" color="1.00,0.00,0.00" fill="0" layer="1" shape="798.54,205.16 792.80,199.19 781.53,197.43 772.27,203.63 769.55,213.94 776.15,225.13 784.53,227.86 792.93,225.64 797.70,221.15 799.90,216.31 800.37,211.65 798.54,205.16"/>
    <poly id="-134663" type="boundary.civil" color="1.00,0.00,0.00" fill="0" layer="1" shape="809.07,199.35 798.86,188.75 778.84,185.61 762.38,196.63 757.55,214.96 769.27,234.85 784.17,239.69 799.10,235.75 807.57,227.76 811.48,219.17 812.31,210.88 809.07,199.35"/>
    <poly id="-134667" type="boundary.civil" color="1.00,0.00,0.00" fill="0" layer="1" shape="368.23,1115.78 362.49,1109.81 351.22,1108.05 341.97,1114.25 339.25,1124.56 345.84,1135.75 354.23,1138.48 362.62,1136.26 367.39,1131.76 369.59,1126.93 370.06,1122.27 368.23,1115.78"/>
    <poly id="-134669" type="boundary.civil" color="1.00,0.00,0.00" fill="0" layer="1" shape="378.76,1109.97 368.55,1099.37 348.53,1096.24 332.08,1107.25 327.25,1125.58 338.97,1145.46 353.87,1150.31 368.79,1146.37 377.26,1138.38 381.17,1129.79 382.00,1121.50 378.76,1109.97"/>
    <poly id="-134673" type="boundary.civil" color="1.00,0.00,0.00" fill="0" layer="1" shape="917.39,443.71 911.65,437.75 900.38,435.98 891.12,442.18 888.40,452.50 895.00,463.69 903.38,466.42 911.78,464.20 916.55,459.70 918.75,454.87 919.22,450.20 917.39,443.71"/>
    <poly id="-134675" type="boundary.civil" color="1.00,0.00,0.00" fill="0" layer="1" shape="927.92,437.90 917.71,427.30 897.69,424.17 881.24,435.18 876.41,453.51 888.13,473.40 903.03,478.25 917.95,474.30 926.42,466.31 930.33,457.72 931.16,449.44 927.92,437.90"/>
    <poly id="-134679" type="boundary.civil" color="1.00,0.00,0.00" fill="0" layer="1" shape="460.47,527.62 454.73,521.65 443.46,519.89 434.20,526.09 431.48,536.40 438.08,547.59 446.46,550.32 454.86,548.10 459.63,543.60 461.83,538.77 462.30,534.11 460.47,527.62"/>
    <poly id="-134681" type="boundary.civil" color="1.00,0.00,0.00" fill="0" layer="1" shape="471.00,521.80 460.79,511.21 440.77,508.07 424.32,519.09 419.49,537.42 431.21,557.31 446.11,562.15 461.03,558.21 469.50,550.22 473.41,541.63 474.24,533.34 471.00,521.80"/>
    <poly id="1" type="boundary.civil" color="1.00,0.00,0.00" fill="0" layer="1" shape="430.06,851.22 415.44,836.04 386.76,831.55 363.21,847.33 356.29,873.58 373.07,902.06 394.41,909.00 415.78,903.35 427.91,891.90 433.51,879.60 434.70,867.74 430.06,851.22"/>
    <poly id="10" type="boundary.civil" color="1.00,0.00,0.00" fill="0" layer="1" shape="481.35,515.98 466.73,500.80 438.05,496.32 414.50,512.09 407.58,538.34 424.36,566.82 445.70,573.76 467.07,568.12 479.20,556.67 484.80,544.37 485.99,532.50 481.35,515.98"/>
    <poly id="2" type="boundary.civil" color="1.00,0.00,0.00" fill="0" layer="1" shape="628.00,1247.28 613.38,1232.11 584.70,1227.62 561.15,1243.39 554.23,1269.64 571.01,1298.12 592.35,1305.06 613.72,1299.41 625.85,1287.97 631.44,1275.67 632.64,1263.80 628.00,1247.28"/>
    <poly id="3" type="boundary.civil" color="1.00,0.00,0.00" fill="0" layer="1" shape="389.11,1104.14 374.49,1088.97 345.82,1084.48 322.26,1100.26 315.35,1126.50 332.13,1154.98 353.47,1161.92 374.83,1156.27 386.96,1144.83 392.56,1132.53 393.75,1120.66 389.11,1104.14"/>
    <poly id="4" type="boundary.civil" color="1.00,0.00,0.00" fill="0" layer="1" shape="819.42,193.52 804.80,178.34 776.12,173.85 752.56,189.63 745.64,215.88 762.43,244.36 783.77,251.31 805.14,245.66 817.27,234.21 822.87,221.91 824.06,210.05 819.42,193.52"/>
    <poly id="5" type="boundary.civil" color="1.00,0.00,0.00" fill="0" layer="1" shape="743.69,683.53 729.07,668.35 700.40,663.86 676.84,679.64 669.92,705.88 686.70,734.37 708.04,741.31 729.41,735.66 741.54,724.22 747.14,711.92 748.33,700.05 743.69,683.53"/>
    <poly id="6" type="boundary.civil" color="1.00,0.00,0.00" fill="0" layer="1" shape="1227.50,278.39 1212.88,263.21 1184.20,258.72 1160.64,274.49 1153.72,300.74 1170.50,329.22 1191.84,336.17 1213.21,330.52 1225.34,319.08 1230.94,306.78 1232.14,294.91 1227.50,278.39"/>
    <poly id="7" type="boundary.civil" color="1.00,0.00,0.00" fill="0" layer="1" shape="1500.42,260.62 1485.80,245.43 1457.12,240.94 1433.56,256.71 1426.64,282.96 1443.42,311.45 1464.76,318.39 1486.13,312.75 1498.26,301.31 1503.86,289.00 1505.06,277.14 1500.42,260.62"/>
    <poly id="8" type="boundary.civil" color="1.00,0.00,0.00" fill="0" layer="1" shape="938.28,432.08 923.65,416.90 894.98,412.41 871.42,428.18 864.50,454.43 881.28,482.92 902.62,489.86 923.99,484.21 936.12,472.77 941.72,460.47 942.92,448.60 938.28,432.08"/>
    <poly id="9" type="boundary.civil" color="1.00,0.00,0.00" fill="0" layer="1" shape="1429.46,509.76 1414.84,494.58 1386.16,490.09 1362.60,505.86 1355.68,532.11 1372.46,560.60 1393.80,567.54 1415.17,561.90 1427.30,550.45 1432.90,538.15 1434.10,526.29 1429.46,509.76"/>
</additional>
