<?xml version="1.0" encoding="UTF-8"?>
<additional xmlns:xsi="http://www.w3.org/2001/XMLSchema-instance" 
 xsi:noNamespaceSchemaLocation="http://sumo-sim.org/xsd/additional_file.xsd">

   <tlLogic id="cluster_260928395_583370365" type="static" programID="1" offset="0">
      <phase duration="31" state="GGGrrrrGGGG"/>
      <phase duration="4"  state="GGGrrrryyyy"/>
      <phase duration="10"  state="GGGgrrrrrrr"/>
      <phase duration="4"  state="yyyyrrrrrrr"/>
      <phase duration="31" state="rrrrGGGGrGr"/>
      <phase duration="4"  state="rrrryyyyryr"/>
   </tlLogic>

   <tlLogic id="cluster_34843128_661222" type="static" programID="1" offset="0">
      <phase duration="31" state="GGGGGrrrrrGGrr"/>
      <phase duration="4"  state="yyyyyrrrrryyrr"/>
      <phase duration="10"  state="rrrrrGrrrrrrGG"/>
      <phase duration="4"  state="rrrrrGrrrrrryy"/>
      <phase duration="31" state="rrrrrGGGGGrrrr"/>
      <phase duration="4"  state="rrrrryyyyyrrrr"/>
   </tlLogic>

   <tlLogic id="cluster_34843123_368341_829526332" type="static" programID="1" offset="0">
      <phase duration="31" state="rrrGGrrrGGG"/>
      <phase duration="4"  state="rrryyrrryyy"/>
      <phase duration="10" state="GrrrrGGrrrr"/>
      <phase duration="4"  state="GrrrryGrrrr"/>
      <phase duration="31" state="GGGrrrGrrrr"/>
      <phase duration="4"  state="GyyrrrGrrrr"/>
      <phase duration="10" state="GrrGrrGGGrr"/>
      <phase duration="4"  state="yrrGrryyGrr"/>      
   </tlLogic>
   
   <tlLogic id="cluster_25626269_34843121" type="static" programID="1" offset="0">
      <phase duration="31" state="GGGrrrrrrGGGr"/>
      <phase duration="9" state="yyyrrrrrryyyr"/>
      <phase duration="10" state="rrrGrrrrrrrrG"/>
      <phase duration="9" state="rrryrrrrrrrry"/>
      <phase duration="31" state="rrrrGGGGGrrrr"/>
      <phase duration="9" state="rrrryyyyyrrrr"/>
   </tlLogic>
   
<!--    <tlLogic id="176932548" type="static" programID="1" offset="40">
        <phase duration="31" state="GGGrrrGGg"/>
        <phase duration="4" state="yyyrrryyg"/>
        <phase duration="6" state="rrrrrrrrG"/>
        <phase duration="4" state="rrrrrrrry"/>
        <phase duration="31" state="rrrGGGrrr"/>
        <phase duration="4" state="rrryyyrrr"/>
    </tlLogic>  --> 
   
<!--   <tlLogic id="32565509" type="static" programID="1" offset="0">
      <phase duration="31" state="rrrGGGGrrrrrrr"/>
      <phase duration="4"  state="rrryyyyrrrrrrr"/>
      <phase duration="10" state="rrrrrrrrrrGGGG"/>
      <phase duration="4"  state="rrrrrrrrrryyyy"/>
      <phase duration="31"  state="rrrrrrrgggrrrr"/>
      <phase duration="4"  state="rrrrrrryyyrrrr"/>
      <phase duration="10" state="gggrrrrrrrrrrr"/>
      <phase duration="4"  state="yyyrrrrrrrrrrr"/>
   </tlLogic>-->
   
<!--   <tlLogic id="277518683" type="static" programID="1" offset="0">
      <phase duration="31" state="GGGrrrrrGGGrrrrr"/>
      <phase duration="9"  state="GyyrrrrrGyyrrrrr"/>
      <phase duration="10" state="GrrGGrrrGrrGGrrr"/>
      <phase duration="9"  state="yrryGrrryrryGrrr"/>
      <phase duration="31" state="rrrrGGGrrrrrGGGr"/>
      <phase duration="9"  state="rrrryyyrrrrryyyr"/>
      <phase duration="10" state="rrrrrrrGrrrrrrrG"/>
      <phase duration="9"  state="rrrrrrryrrrrrrry"/>
   </tlLogic>-->
   
<!--   <tlLogic id="cluster_27235547_442309" type="static" programID="1" offset="0">
      <phase duration="31" state="gggGGGrGrr"/>
      <phase duration="9"  state="gyyGGGrGrr"/>
      <phase duration="12" state="GrrGgggGrr"/>
      <phase duration="9"  state="GrrGyyyGrr"/>
      <phase duration="31" state="GrrGrrrGGG"/>
      <phase duration="9"  state="GrrGrrrGyy"/>
   </tlLogic>-->
   
   <tlLogic id="270938224" type="static" programID="1" offset="35">
      <phase duration="31" state="GGgrrGGG"/>
      <phase duration="4" state="yygrryyy"/>
      <phase duration="6" state="rrGrrrrr"/>
      <phase duration="4" state="rryrrrrr"/>
      <phase duration="31" state="rrrGGGrr"/>
      <phase duration="4" state="rrryyyrr"/>
   </tlLogic>
   
<!--   <tlLogic id="1369651515" type="static" programID="1" offset="0">
      <phase duration="21" state="GGrrG"/>
      <phase duration="5" state="yyrrG"/>
      <phase duration="41" state="rrGGG"/>
      <phase duration="5" state="rryyG"/>
   </tlLogic>
   <tlLogic id="367908" type="static" programID="1" offset="0">
      <phase duration="21" state="GGrrG"/>
      <phase duration="5" state="yyrrG"/>
      <phase duration="41" state="rGGGG"/>
      <phase duration="5" state="ryyyG"/>
   </tlLogic>    
   <tlLogic id="27233754" type="static" programID="1" offset="0">
      <phase duration="21" state="GrrGG"/>
      <phase duration="5"  state="yrrGy"/>
      <phase duration="41" state="GGGGr"/>
      <phase duration="5"  state="yyyGr"/>
   </tlLogic>
   <tlLogic id="1369651401" type="static" programID="1" offset="0">
      <phase duration="21" state="GGrrGGG"/>
      <phase duration="5"  state="yyrrGyy"/>
      <phase duration="41" state="GGGGGrr"/>
      <phase duration="5"  state="yyyyGrr"/>
   </tlLogic> 
   <tlLogic id="27233736" type="static" programID="1" offset="0">
      <phase duration="21" state="GGrrG"/>
      <phase duration="5"  state="yyrrG"/>
      <phase duration="41" state="rrGGG"/>
      <phase duration="5"  state="rryyG"/>
   </tlLogic>   
   <tlLogic id="367911" type="static" programID="1" offset="0">
      <phase duration="21" state="GGGGrrG"/>
      <phase duration="5"  state="yyyyrrG"/>
      <phase duration="41" state="rrGGGGG"/>
      <phase duration="5"  state="rryyyyG"/>
   </tlLogic>
   <tlLogic id="27233732" type="static" programID="1" offset="0">
      <phase duration="31" state="GGGGrrG"/>
      <phase duration="5"  state="yyyyrrG"/>
      <phase duration="31" state="rrGGGGG"/>
      <phase duration="5"  state="rryyyyG"/>
   </tlLogic>
   <tlLogic id="367910" type="static" programID="1" offset="0">
      <phase duration="31" state="GGGGrrG"/>
      <phase duration="5"  state="yyyyrrG"/>
      <phase duration="31" state="rrGGGGG"/>
      <phase duration="5"  state="rryyyyG"/>
   </tlLogic>  --> 
    
<!--   <tlLogic id="319673160" type="static" programID="1" offset="36">
      <phase duration="31" state="GGGrrG"/>
      <phase duration="5" state="yyyrry"/>
      <phase duration="31" state="rrrGGG"/>
      <phase duration="5" state="rrryyy"/>
   </tlLogic>-->

<!--   <tlLogic id="34816544" type="static" programID="1" offset="0">
      <phase duration="21" state="GGrrrGGGG"/>
      <phase duration="5"  state="GGrrrGyyy"/>
      <phase duration="41" state="GGGGGGrrr"/>
      <phase duration="5"  state="GGyyyGrrr"/>
   </tlLogic>
   <tlLogic id="34816547" type="static" programID="1" offset="0">
      <phase duration="21" state="GGrrrGGGG"/>
      <phase duration="5"  state="GGrrrGyyy"/>
      <phase duration="41" state="GGGGGGrrr"/>
      <phase duration="5"  state="GGyyyGrrr"/>
   </tlLogic>
   <tlLogic id="34816507" type="static" programID="1" offset="0">
      <phase duration="21" state="GGGGGrrrG"/>
      <phase duration="5"  state="yyyGGrrrG"/>
      <phase duration="41" state="rrrGGGGGG"/>
      <phase duration="5"  state="rrrGGyyyG"/>
   </tlLogic>
   <tlLogic id="34816458" type="static" programID="1" offset="0">
      <phase duration="21" state="GGGGGrrrG"/>
      <phase duration="5"  state="yyyGGrrrG"/>
      <phase duration="41" state="rrrGGGGGG"/>
      <phase duration="5"  state="rrrGGyyyG"/>
   </tlLogic>
   <tlLogic id="34816475" type="static" programID="1" offset="0">
      <phase duration="21" state="GGGGGrrrG"/>
      <phase duration="5"  state="yyyGGrrrG"/>
      <phase duration="41" state="rrrGGGGGG"/>
      <phase duration="5"  state="rrrGGyyyG"/>
   </tlLogic>   --> 

<!--   <tlLogic id="34816713" type="static" programID="1" offset="0">
      <phase duration="31" state="rrrrGGGrrrrrGGGr"/>
      <phase duration="5"  state="rrrrGyyrrrrrGyyr"/>
      <phase duration="10" state="GrrrGrrGGrrrGrrG"/>
      <phase duration="5"  state="GrrryrryGrrryrry"/>
      <phase duration="31" state="GGGrrrrrGGGrrrrr"/>
      <phase duration="5"  state="GyyrrrrrGyyrrrrr"/>
      <phase duration="10" state="GrrGGrrrGrrGGrrr"/>
      <phase duration="5"  state="yrryGrrryrryGrrr"/>
   </tlLogic>-->
   
<!--   <tlLogic id="34816712" type="static" programID="1" offset="49">
      <phase duration="31" state="GGGrrrrrGGGrrrrr"/>
      <phase duration="4"  state="GyyrrrrrGyyrrrrr"/>
      <phase duration="10" state="GrrGrrrrGrrGrrrr"/>
      <phase duration="4"  state="yrryrrrryrryrrrr"/>
      <phase duration="31" state="rrrrGGGrrrrrGGGr"/>
      <phase duration="4"  state="rrrrGyyrrrrrGyyr"/>
      <phase duration="10" state="rrrrGrrGrrrrGrrG"/>
      <phase duration="4"  state="rrrryrryrrrryrry"/>
   </tlLogic>-->
   
<!--   <tlLogic id="367891" type="static" programID="1" offset="0">
      <phase duration="10" state="rrrGGGGrrrrrrrrrrrrr"/>
      <phase duration="5"  state="rrrGGyyrrrrrrrrrrrrr"/>
      <phase duration="21" state="rrrGGrrrrrrrrGGGrrrr"/>
      <phase duration="5"  state="rrryyrrrrrrrryyyrrrr"/>
      <phase duration="10" state="GGGrrrrrrrrrrrrrrrrr"/>
      <phase duration="5"  state="yyyrrrrrrrrrrrrrrrrr"/>
      <phase duration="10" state="rrrrrrrGrrrrrrrrGGGG"/>
      <phase duration="5"  state="rrrrrrrGrrrrrrrrGyyG"/>
      <phase duration="10" state="rrrrrrrGGGrrrrrrGrrG"/>
      <phase duration="5"  state="rrrrrrryyyrrrrrryrry"/>
      <phase duration="21" state="rrrGGGrrrrGGGrrrrrrr"/>
      <phase duration="5"  state="rrryyyrrrryyyrrrrrrr"/>
   </tlLogic>-->
   
<!--   <tlLogic id="442308" type="static" programID="1" offset="0">
      <phase duration="15" state="rrrGG"/>
      <phase duration="5"  state="rrrGy"/>
      <phase duration="15"  state="rrGGr"/>
      <phase duration="5"  state="rryyr"/>
      <phase duration="31" state="GGrrr"/>
      <phase duration="5"  state="yyrrr"/>
   </tlLogic>
   <tlLogic id="27286625" type="static" programID="1" offset="0">
      <phase duration="15" state="GrrrG"/>
      <phase duration="5"  state="Grrry"/>
      <phase duration="15"  state="GGrrr"/>
      <phase duration="5"  state="yyrrr"/>
      <phase duration="31" state="rrGGr"/>
      <phase duration="5"  state="rryyr"/>
   </tlLogic>-->

<!--   <tlLogic id="27252239" type="static" programID="1" offset="0">
      <phase duration="31" state="rrrGGGrrrrGGGr"/>
      <phase duration="5"  state="rrryyyrrrryyyr"/>
      <phase duration="10" state="GrrrrrGGrrrrrG"/>
      <phase duration="5"  state="GrrrrryGrrrrry"/>
      <phase duration="31" state="GGrrrrrGGrrrrr"/>
      <phase duration="5"  state="Gyrrrrryyrrrrr"/>
      <phase duration="10" state="GrGrrrrrrGGrrr"/>
      <phase duration="5"  state="yryrrrrrryGrrr"/>
   </tlLogic>-->
  
<!--   <tlLogic id="27234843" type="static" programID="1" offset="0">
      <phase duration="31" state="rrrGGGrrrrGGGr"/>
      <phase duration="5"  state="rrryyyrrrryyyr"/>
      <phase duration="10" state="GrrrrrGGrrrrrG"/>
      <phase duration="5"  state="GrrrrryGrrrrry"/>
      <phase duration="31" state="GGrrrrrGGrrrrr"/>
      <phase duration="5"  state="Gyrrrrryyrrrrr"/>
      <phase duration="10" state="GrGrrrrrrGGrrr"/>
      <phase duration="5"  state="yryrrrrrryGrrr"/>
   </tlLogic>  -->
<!--   <tlLogic id="25624258" type="static" programID="1" offset="36">
      <phase duration="31" state="GGGGrrr"/>
      <phase duration="5" state="yyyyrrr"/>
      <phase duration="31" state="rrGGGGG"/>
      <phase duration="5" state="rryyyyy"/>
   </tlLogic>
   <tlLogic id="25624259" type="static" programID="1" offset="36">
      <phase duration="31" state="GrrrGgg"/>
      <phase duration="5" state="yrrrygg"/>
      <phase duration="6" state="rrrrrGG"/>
      <phase duration="5" state="rrrrryy"/>
      <phase duration="31" state="rGGGrrr"/>
      <phase duration="5" state="ryyyrrr"/>
   </tlLogic>-->
   
<!--   <tlLogic id="25623994" type="static" programID="1" offset="0">
      <phase duration="31" state="GGrrrGGGrrr"/>
      <phase duration="4"  state="yyrrryyyrrr"/>
      <phase duration="10" state="rrGrrrrrGrr"/>
      <phase duration="4"  state="rryrrrrryrr"/>
      <phase duration="31" state="rrrGrrrrGGG"/>
      <phase duration="4"  state="rrryrrrryyy"/>
      <phase duration="10" state="rrrrGrrrrrG"/>
      <phase duration="4"  state="rrrryrrrrry"/>
   </tlLogic>   
   <tlLogic id="25623995" type="static" programID="1" offset="0">
      <phase duration="31" state="GGGrrrGGr"/>
      <phase duration="4"  state="yyyrrryyr"/>
      <phase duration="10" state="rrrGrrrrG"/>
      <phase duration="4"  state="rrryrrrry"/>
      <phase duration="31" state="rrrGGGrrr"/>
      <phase duration="4"  state="rrryyyrrr"/>
      <phase duration="14" state="GGGrrrGGr"/>
   </tlLogic>-->

   
</additional>
