<?xml version="1.0" encoding="UTF-8"?>
<additional xmlns:xsi="http://www.w3.org/2001/XMLSchema-instance" 
 xsi:noNamespaceSchemaLocation="http://sumo-sim.org/xsd/additional_file.xsd">

    <tlLogic id="joinedS_32" type="static" programID="1" offset="0">
        <phase duration="31" state="GGGrrrgrrgrr"/>
        <phase duration="4"  state="Gyyrrryrrgrr"/>
        <phase duration="31" state="grrGGGrrrgrr"/>
        <phase duration="4"  state="grrGyyrrryrr"/>
        <phase duration="31" state="grrgrrGGGrrr"/>
        <phase duration="4"  state="yrrgrrGyyrrr"/>
        <phase duration="31" state="rrrgrrgrrGGG"/>
        <phase duration="4"  state="rrryrrgrrGyy"/>
    </tlLogic>
    
</additional>
