<?xml version="1.0" encoding="UTF-8"?>

<!-- generated on Fri Jan 10 17:16:54 2014 by SUMO polyconvert Version 0.15.0
<?xml version="1.0" encoding="UTF-8"?>

<configuration xmlns:xsi="http://www.w3.org/2001/XMLSchema-instance" xsi:noNamespaceSchemaLocation="http://sumo.sf.net/xsd/polyconvertConfiguration.xsd">

    <input>
        <net-file value="stockholm.net.xml"/>
        <osm-files value="polygons.osm"/>
        <osm.keep-full-type value="true"/>
        <osm.use-name value="true"/>
        <type-file value="typemap.xml"/>
    </input>

    <output>
        <output-file value="stockholm.poly.xml"/>
    </output>

    <projection>
        <proj value="+proj=utm +zone=34 +ellps=WGS84 +datum=WGS84 +units=m +no_defs"/>
    </projection>

    <processing>
        <offset.x value="-331461"/>
        <offset.y value="-6.58047e+06"/>
    </processing>

</configuration>
-->

<additional xmlns:xsi="http://www.w3.org/2001/XMLSchema-instance" xsi:noNamespaceSchemaLocation="http://sumo-sim.org/xsd/additional_file.xsd">
    <poly id="-294378" type="boundary.civil" color="1.00,0.00,0.00" fill="0" layer="1" shape="1792.22,1465.26 1784.02,1457.31 1768.40,1455.41 1755.95,1464.41 1752.69,1478.77 1762.32,1493.89 1774.00,1497.25 1785.47,1493.79 1791.82,1487.36 1794.62,1480.59 1795.04,1474.13 1792.22,1465.26"/>
    <poly id="-294380" type="boundary.civil" color="1.00,0.00,0.00" fill="0" layer="1" shape="1784.21,1470.06 1779.59,1465.58 1770.81,1464.52 1763.80,1469.58 1761.97,1477.66 1767.38,1486.17 1773.96,1488.06 1780.41,1486.11 1783.99,1482.49 1785.56,1478.68 1785.80,1475.05 1784.21,1470.06"/>
    <poly id="-294384" type="boundary.civil" color="1.00,0.00,0.00" fill="0" layer="1" shape="1074.47,1668.70 1069.85,1664.22 1061.07,1663.16 1054.06,1668.22 1052.23,1676.30 1057.65,1684.81 1064.22,1686.70 1070.67,1684.75 1074.25,1681.13 1075.82,1677.32 1076.06,1673.69 1074.47,1668.70"/>
    <poly id="-294386" type="boundary.civil" color="1.00,0.00,0.00" fill="0" layer="1" shape="1082.48,1663.90 1074.27,1655.95 1058.66,1654.06 1046.20,1663.05 1042.95,1677.41 1052.58,1692.53 1064.26,1695.89 1075.73,1692.43 1082.08,1686.00 1084.88,1679.22 1085.30,1672.77 1082.48,1663.90"/>
    <poly id="-294388" type="boundary.civil" color="1.00,0.00,0.00" fill="0" layer="1" shape="1523.49,623.79 1518.88,619.32 1510.09,618.25 1503.08,623.31 1501.25,631.39 1506.66,639.91 1513.24,641.80 1519.69,639.85 1523.27,636.23 1524.84,632.42 1525.08,628.78 1523.49,623.79"/>
    <poly id="-294392" type="boundary.civil" color="1.00,0.00,0.00" fill="0" layer="1" shape="1531.50,619.00 1523.30,611.04 1507.68,609.15 1495.22,618.14 1491.97,632.50 1501.60,647.63 1513.28,650.99 1524.75,647.53 1531.10,641.10 1533.90,634.32 1534.33,627.87 1531.50,619.00"/>
    <poly id="-294396" type="boundary.civil" color="1.00,0.00,0.00" fill="0" layer="1" shape="1655.85,1212.82 1651.24,1208.34 1642.45,1207.28 1635.44,1212.34 1633.61,1220.42 1639.02,1228.93 1645.60,1230.82 1652.05,1228.87 1655.63,1225.25 1657.20,1221.44 1657.44,1217.81 1655.85,1212.82"/>
    <poly id="-294398" type="boundary.civil" color="1.00,0.00,0.00" fill="0" layer="1" shape="1663.86,1208.02 1655.66,1200.07 1640.04,1198.18 1627.58,1207.17 1624.33,1221.53 1633.96,1236.65 1645.64,1240.02 1657.11,1236.55 1663.46,1230.12 1666.26,1223.35 1666.68,1216.89 1663.86,1208.02"/>
    <poly id="-294402" type="boundary.civil" color="1.00,0.00,0.00" fill="0" layer="1" shape="773.94,823.20 769.32,818.72 760.53,817.66 753.52,822.72 751.69,830.80 757.11,839.32 763.69,841.21 770.14,839.26 773.71,835.63 775.29,831.82 775.53,828.19 773.94,823.20"/>
    <poly id="-294404" type="boundary.civil" color="1.00,0.00,0.00" fill="0" layer="1" shape="781.94,818.40 773.74,810.45 758.12,808.56 745.66,817.55 742.41,831.92 752.04,847.04 763.73,850.40 775.20,846.94 781.55,840.50 784.35,833.73 784.77,827.27 781.94,818.40"/>
    <poly id="-294408" type="boundary.civil" color="1.00,0.00,0.00" fill="0" layer="1" shape="1513.37,1764.41 1508.76,1759.94 1499.97,1758.87 1492.96,1763.93 1491.13,1772.01 1496.55,1780.52 1503.13,1782.42 1509.58,1780.47 1513.15,1776.85 1514.73,1773.04 1514.96,1769.40 1513.37,1764.41"/>
    <poly id="-294410" type="boundary.civil" color="1.00,0.00,0.00" fill="0" layer="1" shape="1521.38,1759.62 1513.18,1751.67 1497.57,1749.77 1485.11,1758.77 1481.86,1773.13 1491.48,1788.25 1503.17,1791.61 1514.63,1788.15 1520.98,1781.71 1523.78,1774.94 1524.21,1768.49 1521.38,1759.62"/>
    <poly id="-294414" type="boundary.civil" color="1.00,0.00,0.00" fill="0" layer="1" shape="1113.59,444.86 1108.97,440.39 1100.18,439.32 1093.17,444.39 1091.34,452.47 1096.76,460.98 1103.34,462.87 1109.79,460.92 1113.36,457.30 1114.94,453.49 1115.18,449.86 1113.59,444.86"/>
    <poly id="-294416" type="boundary.civil" color="1.00,0.00,0.00" fill="0" layer="1" shape="1121.60,440.07 1113.39,432.11 1097.77,430.22 1085.31,439.22 1082.06,453.58 1091.69,468.71 1103.38,472.07 1114.85,468.60 1121.20,462.17 1124.00,455.39 1124.42,448.94 1121.60,440.07"/>
    <poly id="-294420" type="boundary.civil" color="1.00,0.00,0.00" fill="0" layer="1" shape="144.55,1169.22 139.93,1164.75 131.15,1163.69 124.14,1168.75 122.31,1176.83 127.73,1185.34 134.31,1187.23 140.76,1185.28 144.33,1181.66 145.90,1177.85 146.14,1174.21 144.55,1169.22"/>
    <poly id="-294422" type="boundary.civil" color="1.00,0.00,0.00" fill="0" layer="1" shape="152.56,1164.42 144.35,1156.47 128.74,1154.58 116.28,1163.58 113.03,1177.95 122.66,1193.07 134.35,1196.43 145.82,1192.96 152.17,1186.52 154.96,1179.75 155.39,1173.29 152.56,1164.42"/>
    <poly id="-294426" type="boundary.civil" color="1.00,0.00,0.00" fill="0" layer="1" shape="2202.50,311.96 2197.89,307.48 2189.10,306.41 2182.09,311.47 2180.25,319.56 2185.67,328.07 2192.25,329.96 2198.70,328.02 2202.28,324.40 2203.85,320.58 2204.09,316.95 2202.50,311.96"/>
    <poly id="-294428" type="boundary.civil" color="1.00,0.00,0.00" fill="0" layer="1" shape="2210.51,307.16 2202.31,299.21 2186.69,297.31 2174.23,306.30 2170.98,320.67 2180.60,335.80 2192.29,339.16 2203.76,335.70 2210.11,329.27 2212.91,322.49 2213.34,316.03 2210.51,307.16"/>
    <poly id="-294432" type="boundary.civil" color="1.00,0.00,0.00" fill="0" layer="1" shape="1765.17,288.45 1760.55,283.97 1751.76,282.90 1744.75,287.96 1742.92,296.05 1748.34,304.56 1754.91,306.45 1761.37,304.50 1764.94,300.88 1766.52,297.07 1766.76,293.44 1765.17,288.45"/>
    <poly id="-294434" type="boundary.civil" color="1.00,0.00,0.00" fill="0" layer="1" shape="1773.18,283.65 1764.97,275.69 1749.36,273.80 1736.89,282.79 1733.64,297.16 1743.27,312.29 1754.96,315.65 1766.42,312.19 1772.78,305.75 1775.58,298.98 1776.00,292.52 1773.18,283.65"/>
    <poly id="-294438" type="boundary.civil" color="1.00,0.00,0.00" fill="0" layer="1" shape="1227.39,160.51 1222.78,156.03 1213.99,154.97 1206.98,160.03 1205.15,168.11 1210.56,176.63 1217.14,178.52 1223.60,176.57 1227.17,172.95 1228.75,169.13 1228.98,165.50 1227.39,160.51"/>
    <poly id="-294440" type="boundary.civil" color="1.00,0.00,0.00" fill="0" layer="1" shape="1235.41,155.71 1227.20,147.76 1211.58,145.86 1199.12,154.86 1195.87,169.22 1205.50,184.35 1217.19,187.72 1228.65,184.25 1235.01,177.82 1237.81,171.04 1238.23,164.58 1235.41,155.71"/>
    <poly id="-294444" type="boundary.civil" color="1.00,0.00,0.00" fill="0" layer="1" shape="1290.19,1178.67 1281.98,1170.72 1266.37,1168.82 1253.91,1177.82 1250.66,1192.18 1260.29,1207.31 1271.97,1210.67 1283.44,1207.20 1289.79,1200.77 1292.59,1193.99 1293.01,1187.54 1290.19,1178.67"/>
    <poly id="-294446" type="boundary.civil" color="1.00,0.00,0.00" fill="0" layer="1" shape="1282.18,1183.47 1277.56,1178.99 1268.78,1177.93 1261.76,1182.99 1259.94,1191.07 1265.35,1199.58 1271.93,1201.47 1278.38,1199.52 1281.95,1195.90 1283.53,1192.09 1283.77,1188.46 1282.18,1183.47"/>
    <poly id="1" type="boundary.civil" color="1.00,0.00,0.00" fill="0" layer="1" shape="1129.47,435.27 1117.72,423.88 1095.35,421.16 1077.51,434.05 1072.85,454.62 1086.64,476.28 1103.38,481.10 1119.80,476.14 1128.90,466.92 1132.91,457.22 1133.52,447.97 1129.47,435.27"/>
    <poly id="10" type="boundary.civil" color="1.00,0.00,0.00" fill="0" layer="1" shape="1671.73,1203.22 1659.98,1191.83 1637.62,1189.12 1619.78,1202.00 1615.12,1222.57 1628.91,1244.23 1645.64,1249.04 1662.06,1244.08 1671.16,1234.87 1675.17,1225.17 1675.77,1215.93 1671.73,1203.22"/>
    <poly id="11" type="boundary.civil" color="1.00,0.00,0.00" fill="0" layer="1" shape="1539.37,614.20 1527.62,602.80 1505.26,600.09 1487.42,612.97 1482.76,633.54 1496.54,655.21 1513.28,660.02 1529.70,655.06 1538.80,645.85 1542.81,636.15 1543.42,626.90 1539.37,614.20"/>
    <poly id="12" type="boundary.civil" color="1.00,0.00,0.00" fill="0" layer="1" shape="1298.06,1173.87 1286.31,1162.48 1263.95,1159.77 1246.10,1172.65 1241.45,1193.22 1255.23,1214.88 1271.97,1219.69 1288.39,1214.73 1297.49,1205.52 1301.49,1195.82 1302.10,1186.57 1298.06,1173.87"/>
    <poly id="2" type="boundary.civil" color="1.00,0.00,0.00" fill="0" layer="1" shape="789.81,813.60 778.06,802.21 755.70,799.50 737.86,812.39 733.20,832.96 746.99,854.62 763.73,859.43 780.15,854.47 789.25,845.25 793.26,835.55 793.86,826.30 789.81,813.60"/>
    <poly id="3" type="boundary.civil" color="1.00,0.00,0.00" fill="0" layer="1" shape="1243.28,150.91 1231.52,139.52 1209.16,136.81 1191.31,149.69 1186.65,170.26 1200.44,191.93 1217.18,196.74 1233.61,191.78 1242.71,182.57 1246.72,172.86 1247.32,163.62 1243.28,150.91"/>
    <poly id="4" type="boundary.civil" color="1.00,0.00,0.00" fill="0" layer="1" shape="1781.05,278.85 1769.30,267.46 1746.94,264.74 1729.09,277.63 1724.43,298.20 1738.21,319.86 1754.95,324.68 1771.38,319.72 1780.48,310.50 1784.49,300.80 1785.10,291.56 1781.05,278.85"/>
    <poly id="5" type="boundary.civil" color="1.00,0.00,0.00" fill="0" layer="1" shape="2218.39,302.36 2206.64,290.97 2184.27,288.25 2166.42,301.13 2161.76,321.70 2175.55,343.37 2192.28,348.19 2208.71,343.23 2217.81,334.02 2221.82,324.32 2222.43,315.07 2218.39,302.36"/>
    <poly id="6" type="boundary.civil" color="1.00,0.00,0.00" fill="0" layer="1" shape="1800.09,1460.46 1788.34,1449.08 1765.98,1446.36 1748.14,1459.24 1743.48,1479.80 1757.27,1501.46 1774.00,1506.28 1790.42,1501.32 1799.52,1492.11 1803.52,1482.41 1804.13,1473.17 1800.09,1460.46"/>
    <poly id="7" type="boundary.civil" color="1.00,0.00,0.00" fill="0" layer="1" shape="1529.25,1754.82 1517.50,1743.43 1495.15,1740.72 1477.31,1753.60 1472.65,1774.16 1486.43,1795.82 1503.17,1800.63 1519.58,1795.67 1528.68,1786.46 1532.69,1776.76 1533.29,1767.52 1529.25,1754.82"/>
    <poly id="8" type="boundary.civil" color="1.00,0.00,0.00" fill="0" layer="1" shape="1090.34,1659.10 1078.59,1647.71 1056.24,1645.01 1038.40,1657.89 1033.74,1678.45 1047.53,1700.11 1064.26,1704.92 1080.68,1699.96 1089.78,1690.75 1093.78,1681.05 1094.39,1671.80 1090.34,1659.10"/>
    <poly id="9" type="boundary.civil" color="1.00,0.00,0.00" fill="0" layer="1" shape="160.43,1159.62 148.67,1148.24 126.31,1145.53 108.47,1158.42 103.82,1178.99 117.62,1200.64 134.35,1205.45 150.77,1200.49 159.87,1191.27 163.87,1181.57 164.48,1172.32 160.43,1159.62"/>
</additional>
