<?xml version="1.0" encoding="UTF-8"?>

<!-- generated on Mon Dec 30 18:11:48 2013 by SUMO polyconvert Version 0.15.0
<?xml version="1.0" encoding="UTF-8"?>

<configuration xmlns:xsi="http://www.w3.org/2001/XMLSchema-instance" xsi:noNamespaceSchemaLocation="http://sumo.sf.net/xsd/polyconvertConfiguration.xsd">

    <input>
        <net-file value="berlin.net.xml"/>
        <osm-files value="polygons.osm"/>
        <osm.keep-full-type value="true"/>
        <osm.use-name value="true"/>
        <type-file value="typemap.xml"/>
    </input>

    <output>
        <output-file value="berlin.poly.xml"/>
    </output>

    <projection>
        <proj value="+proj=utm +zone=33 +ellps=WGS84 +datum=WGS84 +units=m +no_defs"/>
    </projection>

    <processing>
        <offset.x value="-389258"/>
        <offset.y value="-5.8163e+06"/>
    </processing>

</configuration>
-->

<additional xmlns:xsi="http://www.w3.org/2001/XMLSchema-instance" xsi:noNamespaceSchemaLocation="http://sumo-sim.org/xsd/additional_file.xsd">
    <poly id="-166714" type="boundary.civil" color="1.00,0.00,0.00" fill="0" layer="1" shape="2601.57,1355.51 2591.99,1345.81 2573.42,1343.14 2558.32,1353.54 2554.06,1370.57 2565.14,1388.85 2578.99,1393.17 2592.76,1389.34 2600.51,1381.84 2604.03,1373.84 2604.70,1366.15 2601.57,1355.51"/>
    <poly id="-166716" type="boundary.civil" color="1.00,0.00,0.00" fill="0" layer="1" shape="2591.89,1361.01 2586.50,1355.56 2576.05,1354.06 2567.55,1359.91 2565.15,1369.49 2571.39,1379.78 2579.19,1382.20 2586.93,1380.05 2591.29,1375.83 2593.27,1371.33 2593.65,1367.00 2591.89,1361.01"/>
    <poly id="-166720" type="boundary.civil" color="1.00,0.00,0.00" fill="0" layer="1" shape="3013.10,620.99 3003.52,611.29 2984.94,608.62 2969.84,619.02 2965.58,636.05 2976.67,654.34 2990.52,658.65 3004.29,654.82 3012.04,647.32 3015.56,639.32 3016.23,631.64 3013.10,620.99"/>
    <poly id="-166722" type="boundary.civil" color="1.00,0.00,0.00" fill="0" layer="1" shape="3003.42,626.49 2998.03,621.04 2987.57,619.53 2979.07,625.38 2976.68,634.97 2982.91,645.26 2990.71,647.69 2998.46,645.53 3002.82,641.31 3004.80,636.81 3005.18,632.49 3003.42,626.49"/>
    <poly id="-166726" type="boundary.civil" color="1.00,0.00,0.00" fill="0" layer="1" shape="1407.07,1319.79 1397.49,1310.10 1378.91,1307.44 1363.82,1317.84 1359.56,1334.87 1370.65,1353.15 1384.51,1357.46 1398.27,1353.63 1406.02,1346.13 1409.53,1338.12 1410.21,1330.44 1407.07,1319.79"/>
    <poly id="-166728" type="boundary.civil" color="1.00,0.00,0.00" fill="0" layer="1" shape="1397.39,1325.30 1392.00,1319.85 1381.55,1318.35 1373.05,1324.20 1370.66,1333.79 1376.90,1344.07 1384.69,1346.50 1392.44,1344.34 1396.80,1340.12 1398.78,1335.62 1399.16,1331.29 1397.39,1325.30"/>
    <poly id="-166732" type="boundary.civil" color="1.00,0.00,0.00" fill="0" layer="1" shape="1866.04,1337.54 1856.46,1327.85 1837.89,1325.18 1822.79,1335.58 1818.54,1352.61 1829.62,1370.89 1843.47,1375.20 1857.24,1371.38 1864.99,1363.87 1868.50,1355.87 1869.18,1348.19 1866.04,1337.54"/>
    <poly id="-166734" type="boundary.civil" color="1.00,0.00,0.00" fill="0" layer="1" shape="1856.36,1343.05 1850.97,1337.59 1840.52,1336.10 1832.02,1341.95 1829.63,1351.53 1835.87,1361.82 1843.66,1364.24 1851.41,1362.09 1855.77,1357.87 1857.75,1353.36 1858.13,1349.04 1856.36,1343.05"/>
    <poly id="-166738" type="boundary.civil" color="1.00,0.00,0.00" fill="0" layer="1" shape="1432.16,1116.74 1422.58,1107.05 1404.01,1104.38 1388.91,1114.78 1384.66,1131.82 1395.74,1150.10 1409.60,1154.41 1423.37,1150.58 1431.11,1143.07 1434.63,1135.07 1435.30,1127.39 1432.16,1116.74"/>
    <poly id="-166740" type="boundary.civil" color="1.00,0.00,0.00" fill="0" layer="1" shape="1422.48,1122.25 1417.09,1116.79 1406.64,1115.30 1398.14,1121.15 1395.75,1130.73 1401.99,1141.02 1409.79,1143.45 1417.53,1141.29 1421.89,1137.07 1423.87,1132.56 1424.25,1128.24 1422.48,1122.25"/>
    <poly id="-166744" type="boundary.civil" color="1.00,0.00,0.00" fill="0" layer="1" shape="1814.23,1129.38 1804.65,1119.68 1786.07,1117.02 1770.97,1127.41 1766.72,1144.45 1777.81,1162.73 1791.66,1167.04 1805.43,1163.21 1813.17,1155.71 1816.69,1147.71 1817.36,1140.02 1814.23,1129.38"/>
    <poly id="-166746" type="boundary.civil" color="1.00,0.00,0.00" fill="0" layer="1" shape="1804.55,1134.88 1799.16,1129.43 1788.71,1127.93 1780.21,1133.78 1777.82,1143.36 1784.05,1153.65 1791.85,1156.08 1799.60,1153.92 1803.96,1149.70 1805.93,1145.20 1806.31,1140.87 1804.55,1134.88"/>
    <poly id="-166750" type="boundary.civil" color="1.00,0.00,0.00" fill="0" layer="1" shape="2356.53,861.32 2346.95,851.63 2328.38,848.96 2313.28,859.36 2309.02,876.39 2320.11,894.67 2333.96,898.99 2347.73,895.16 2355.48,887.66 2358.99,879.65 2359.67,871.97 2356.53,861.32"/>
    <poly id="-166752" type="boundary.civil" color="1.00,0.00,0.00" fill="0" layer="1" shape="2346.85,866.83 2341.46,861.37 2331.01,859.87 2322.51,865.72 2320.12,875.31 2326.36,885.60 2334.15,888.02 2341.90,885.87 2346.26,881.65 2348.24,877.15 2348.62,872.82 2346.85,866.83"/>
    <poly id="-166756" type="boundary.civil" color="1.00,0.00,0.00" fill="0" layer="1" shape="1303.68,772.98 1294.10,763.29 1275.53,760.62 1260.43,771.02 1256.18,788.06 1267.27,806.34 1281.12,810.65 1294.89,806.82 1302.63,799.32 1306.15,791.31 1306.82,783.63 1303.68,772.98"/>
    <poly id="-166758" type="boundary.civil" color="1.00,0.00,0.00" fill="0" layer="1" shape="1294.01,778.49 1288.61,773.04 1278.16,771.54 1269.66,777.39 1267.27,786.97 1273.51,797.26 1281.31,799.69 1289.06,797.53 1293.41,793.31 1295.39,788.81 1295.77,784.48 1294.01,778.49"/>
    <poly id="-166762" type="boundary.civil" color="1.00,0.00,0.00" fill="0" layer="1" shape="2147.28,481.92 2141.88,476.47 2131.43,474.97 2122.93,480.82 2120.54,490.40 2126.78,500.69 2134.57,503.12 2142.32,500.97 2146.68,496.74 2148.66,492.24 2149.04,487.92 2147.28,481.92"/>
    <poly id="-166764" type="boundary.civil" color="1.00,0.00,0.00" fill="0" layer="1" shape="2156.96,476.42 2147.38,466.72 2128.80,464.05 2113.70,474.45 2109.44,491.49 2120.53,509.77 2134.38,514.08 2148.15,510.25 2155.90,502.75 2159.42,494.75 2160.09,487.06 2156.96,476.42"/>
    <poly id="-166768" type="boundary.civil" color="1.00,0.00,0.00" fill="0" layer="1" shape="1757.47,615.18 1747.89,605.48 1729.31,602.82 1714.21,613.22 1709.96,630.25 1721.05,648.53 1734.90,652.85 1748.67,649.02 1756.42,641.51 1759.93,633.51 1760.61,625.82 1757.47,615.18"/>
    <poly id="-166770" type="boundary.civil" color="1.00,0.00,0.00" fill="0" layer="1" shape="1747.79,620.69 1742.40,615.23 1731.95,613.73 1723.45,619.58 1721.06,629.17 1727.29,639.46 1735.09,641.88 1742.84,639.73 1747.20,635.50 1749.18,631.00 1749.56,626.68 1747.79,620.69"/>
    <poly id="1" type="boundary.civil" color="1.00,0.00,0.00" fill="0" layer="1" shape="1416.58,1314.28 1402.86,1300.40 1376.26,1296.58 1354.64,1311.47 1348.55,1335.87 1364.43,1362.05 1384.27,1368.22 1403.99,1362.73 1415.08,1351.99 1420.11,1340.53 1421.08,1329.52 1416.58,1314.28"/>
    <poly id="14" type="boundary.civil" color="1.00,0.00,0.00" fill="0" layer="1" shape="1313.20,767.46 1299.48,753.58 1272.87,749.77 1251.25,764.66 1245.16,789.06 1261.04,815.24 1280.88,821.41 1300.60,815.92 1311.69,805.18 1316.73,793.72 1317.69,782.71 1313.20,767.46"/>
    <poly id="15" type="boundary.civil" color="1.00,0.00,0.00" fill="0" layer="1" shape="3022.61,615.47 3008.90,601.59 2982.29,597.76 2960.66,612.65 2954.57,637.04 2970.44,663.23 2990.28,669.41 3010.00,663.93 3021.10,653.19 3026.13,641.73 3027.10,630.72 3022.61,615.47"/>
    <poly id="2" type="boundary.civil" color="1.00,0.00,0.00" fill="0" layer="1" shape="1875.55,1332.03 1861.84,1318.14 1835.23,1314.33 1813.61,1329.22 1807.52,1353.61 1823.40,1379.79 1843.24,1385.96 1862.95,1380.48 1874.05,1369.74 1879.08,1358.28 1880.05,1347.27 1875.55,1332.03"/>
    <poly id="20" type="boundary.civil" color="1.00,0.00,0.00" fill="0" layer="1" shape="1766.99,609.66 1753.27,595.78 1726.66,591.96 1705.04,606.85 1698.94,631.25 1714.82,657.43 1734.66,663.61 1754.38,658.12 1765.48,647.38 1770.51,635.91 1771.48,624.91 1766.99,609.66"/>
    <poly id="21" type="boundary.civil" color="1.00,0.00,0.00" fill="0" layer="1" shape="2611.08,1349.99 2597.36,1336.11 2570.77,1332.29 2549.14,1347.17 2543.05,1371.57 2558.92,1397.75 2578.76,1403.92 2598.47,1398.44 2609.57,1387.70 2614.60,1376.24 2615.57,1365.24 2611.08,1349.99"/>
    <poly id="3" type="boundary.civil" color="1.00,0.00,0.00" fill="0" layer="1" shape="1441.68,1111.22 1427.96,1097.34 1401.35,1093.53 1379.73,1108.42 1373.64,1132.81 1389.52,1158.99 1409.36,1165.17 1429.08,1159.68 1440.17,1148.94 1445.20,1137.48 1446.17,1126.47 1441.68,1111.22"/>
    <poly id="4" type="boundary.civil" color="1.00,0.00,0.00" fill="0" layer="1" shape="1823.74,1123.86 1810.02,1109.98 1783.42,1106.16 1761.80,1121.05 1755.71,1145.44 1771.58,1171.62 1791.42,1177.80 1811.14,1172.32 1822.23,1161.57 1827.27,1150.11 1828.23,1139.11 1823.74,1123.86"/>
    <poly id="5" type="boundary.civil" color="1.00,0.00,0.00" fill="0" layer="1" shape="2366.05,855.81 2352.33,841.92 2325.73,838.10 2304.10,852.99 2298.01,877.39 2313.88,903.57 2333.72,909.75 2353.44,904.26 2364.54,893.52 2369.57,882.06 2370.54,871.06 2366.05,855.81"/>
    <poly id="6" type="boundary.civil" color="1.00,0.00,0.00" fill="0" layer="1" shape="2166.47,470.90 2152.75,457.01 2126.15,453.20 2104.52,468.09 2098.43,492.48 2114.30,518.67 2134.14,524.84 2153.87,519.36 2164.96,508.62 2170.00,497.16 2170.96,486.15 2166.47,470.90"/>
</additional>
